* PEX netlist file	Thu Apr 21 18:10:59 2022	top_level
* icv_netlist Version RHEL64 S-2021.06-SP2.6831572 2021/08/30
*.UNIT=4000

* Hierarchy Level 4
.subckt fill_sram_inverted 2 3 4 5
.ends fill_sram_inverted
.subckt fill_sram 2 3 4 5
.ends fill_sram
.subckt fill_sram_column_decoder_write 2 3 4 5
.ends fill_sram_column_decoder_write
.subckt fill_sram_inverted_read 2 3 4 5
.ends fill_sram_inverted_read
.subckt inverter_row_decoder 2 3 4 5 6 7
.ends inverter_row_decoder
.subckt inverter_column_decoder_write 2 3 4 5 6 7
.ends inverter_column_decoder_write
.subckt sram_6T_1finger_inverted 2 3 4 5 6 7 8 9 10
*.floating_nets _GENERATED_11 _GENERATED_12
.ends sram_6T_1finger_inverted
.subckt sram_6T_1finger 2 3 4 5 6 7 8 9 10
*.floating_nets _GENERATED_11 _GENERATED_12
.ends sram_6T_1finger
.subckt fill_sram_nmos 2 3 4 5 6 7 8
.ends fill_sram_nmos
.subckt inverter_buf_top_leve 2 3 4 5 6 7
.ends inverter_buf_top_leve
.subckt inverter_buf_top_level_v1 2 3 4 5 6 7 8
.ends inverter_buf_top_level_v1
.subckt fill_sram_inverted_pmos_read 2 3 4 5 6
.ends fill_sram_inverted_pmos_read
.subckt fill_sram_pmos 2 3 4 5 6
*.floating_nets _GENERATED_7
.ends fill_sram_pmos
.subckt fill_sram_inverted_nmos 2 3 4 5
.ends fill_sram_inverted_nmos
.subckt and 2 3 4 5 6 7 8 9 10 11
MM1 3 2 6 pmos  W=2.1e-08 L=1.5e-08 NFIN=4 ADEO=5.67e-16 ASEO=1.134e-15 PDEO=1.17e-07
+	 PSEO=2.34e-07 $X=504 $Y=326  $PIN_XY=(534,508,534,338),504,326,(474,508,474,338) $DEVICE_ID=1003
MM2 6 5 2 pmos  W=2.1e-08 L=1.5e-08 NFIN=4 ADEO=1.134e-15 ASEO=1.134e-15 PDEO=2.34e-07
+	 PSEO=2.34e-07 $X=336 $Y=326  $PIN_XY=(366,508,366,338),336,326,(306,508,306,338) $DEVICE_ID=1003
MM3 2 4 6 pmos  W=2.1e-08 L=1.5e-08 NFIN=4 ADEO=1.134e-15 ASEO=5.67e-16 PDEO=2.34e-07
+	 PSEO=1.17e-07 $X=168 $Y=326  $PIN_XY=(198,508,198,338),168,326,(138,508,138,338) $DEVICE_ID=1003
.ends and
.subckt and_v1 2 3 4 5 6 7 8 9 10 11
MM1 3 2 6 pmos  W=2.1e-08 L=1.5e-08 NFIN=4 ADEO=5.67e-16 ASEO=1.134e-15 PDEO=1.17e-07
+	 PSEO=2.34e-07 $X=504 $Y=326  $PIN_XY=(534,508,534,338),504,326,(474,508,474,338) $DEVICE_ID=1003
MM2 6 5 2 pmos  W=2.1e-08 L=1.5e-08 NFIN=4 ADEO=1.134e-15 ASEO=1.134e-15 PDEO=2.34e-07
+	 PSEO=2.34e-07 $X=336 $Y=326  $PIN_XY=(366,508,366,338),336,326,(306,508,306,338) $DEVICE_ID=1003
MM3 2 4 6 pmos  W=2.1e-08 L=1.5e-08 NFIN=4 ADEO=1.134e-15 ASEO=5.67e-16 PDEO=2.34e-07
+	 PSEO=1.17e-07 $X=168 $Y=326  $PIN_XY=(198,508,198,338),168,326,(138,508,138,338) $DEVICE_ID=1003
.ends and_v1
.subckt fill_sram_inverted_pmos_write 2 3 4 5 6
*.floating_nets _GENERATED_7
.ends fill_sram_inverted_pmos_write
.subckt inverter_write 2 3 4 5 6 7 8
MM1 3 2 5 pmos  W=2.1e-08 L=1.5e-08 NFIN=4 ADEO=5.67e-16 ASEO=5.67e-16 PDEO=1.17e-07
+	 PSEO=1.17e-07 $X=222 $Y=310  $PIN_XY=(252,492,252,322),222,310,(192,492,192,322) $DEVICE_ID=1003
.ends inverter_write
.subckt fill_sram_inverted_write_pmos 2 3 4 5
.ends fill_sram_inverted_write_pmos

* Hierarchy Level 3
.subckt sram_lvs_grid 2 3 4 5 6 7 8 9 10 11 12
+	13 14 15 16 17 18 19 20 21 22 23
+	24 25 26 27 28
XX73A2B172271_1 3 2 4 17 fill_sram_column_decoder_write $T=16 13150 0 0 $X=-8 $Y=13086
XX73A2B172271_2 3 2 4 17 fill_sram_column_decoder_write $T=184 13150 0 0 $X=160 $Y=13086
XX73A2B172273_1 3 2 5 18 fill_sram_inverted $T=16 11840 1 0 $X=-8 $Y=11124
XX73A2B172273_2 3 2 5 18 fill_sram_inverted $T=184 11840 1 0 $X=160 $Y=11124
XX73A2B172275_1 3 2 6 17 fill_sram_inverted $T=16 14456 1 0 $X=-8 $Y=13740
XX73A2B172275_2 3 2 6 17 fill_sram_inverted $T=184 14456 1 0 $X=160 $Y=13740
XX73A2B172277_1 3 2 4 19 fill_sram_inverted $T=16 13148 1 0 $X=-8 $Y=12432
XX73A2B172277_2 3 2 4 19 fill_sram_inverted $T=184 13148 1 0 $X=160 $Y=12432
XX73A2B172279_1 3 2 7 20 fill_sram_inverted $T=16 7916 1 0 $X=-8 $Y=7200
XX73A2B172279_2 3 2 7 20 fill_sram_inverted $T=184 7916 1 0 $X=160 $Y=7200
XX73A2B172281_1 3 2 8 21 fill_sram_inverted $T=16 10532 1 0 $X=-8 $Y=9816
XX73A2B172281_2 3 2 8 21 fill_sram_inverted $T=184 10532 1 0 $X=160 $Y=9816
XX73A2B172283_1 3 2 9 22 fill_sram_inverted $T=16 9224 1 0 $X=-8 $Y=8508
XX73A2B172283_2 3 2 9 22 fill_sram_inverted $T=184 9224 1 0 $X=160 $Y=8508
XX73A2B172285_1 3 2 10 23 fill_sram_inverted $T=16 1376 1 0 $X=-8 $Y=660
XX73A2B172285_2 3 2 10 23 fill_sram_inverted $T=184 1376 1 0 $X=160 $Y=660
XX73A2B172287_1 3 2 11 24 fill_sram_inverted $T=16 2684 1 0 $X=-8 $Y=1968
XX73A2B172287_2 3 2 11 24 fill_sram_inverted $T=184 2684 1 0 $X=160 $Y=1968
XX73A2B172289_1 3 2 12 25 fill_sram_inverted $T=16 3992 1 0 $X=-8 $Y=3276
XX73A2B172289_2 3 2 12 25 fill_sram_inverted $T=184 3992 1 0 $X=160 $Y=3276
XX73A2B172291_1 3 2 13 26 fill_sram_inverted $T=16 5300 1 0 $X=-8 $Y=4584
XX73A2B172291_2 3 2 13 26 fill_sram_inverted $T=184 5300 1 0 $X=160 $Y=4584
XX73A2B172293_1 3 2 14 27 fill_sram_inverted $T=16 6608 1 0 $X=-8 $Y=5892
XX73A2B172293_2 3 2 14 27 fill_sram_inverted $T=184 6608 1 0 $X=160 $Y=5892
XX73A2B172295_1 3 2 6 28 fill_sram $T=16 14458 0 0 $X=-8 $Y=14394
XX73A2B172295_2 3 2 6 28 fill_sram $T=184 14458 0 0 $X=160 $Y=14394
XX73A2B172297_1 3 2 5 19 fill_sram $T=16 11842 0 0 $X=-8 $Y=11778
XX73A2B172297_2 3 2 5 19 fill_sram $T=184 11842 0 0 $X=160 $Y=11778
XX73A2B172299_1 3 2 8 18 fill_sram $T=16 10534 0 0 $X=-8 $Y=10470
XX73A2B172299_2 3 2 8 18 fill_sram $T=184 10534 0 0 $X=160 $Y=10470
XX73A2B172301_1 3 2 14 20 fill_sram $T=16 6610 0 0 $X=-8 $Y=6546
XX73A2B172301_2 3 2 14 20 fill_sram $T=184 6610 0 0 $X=160 $Y=6546
XX73A2B172303_1 3 2 9 21 fill_sram $T=16 9226 0 0 $X=-8 $Y=9162
XX73A2B172303_2 3 2 9 21 fill_sram $T=184 9226 0 0 $X=160 $Y=9162
XX73A2B172305_1 3 2 7 22 fill_sram $T=16 7918 0 0 $X=-8 $Y=7854
XX73A2B172305_2 3 2 7 22 fill_sram $T=184 7918 0 0 $X=160 $Y=7854
XX73A2B172307_1 3 2 10 24 fill_sram $T=16 1378 0 0 $X=-8 $Y=1314
XX73A2B172307_2 3 2 10 24 fill_sram $T=184 1378 0 0 $X=160 $Y=1314
XX73A2B172309_1 3 2 11 25 fill_sram $T=16 2686 0 0 $X=-8 $Y=2622
XX73A2B172309_2 3 2 11 25 fill_sram $T=184 2686 0 0 $X=160 $Y=2622
XX73A2B172311_1 3 2 12 26 fill_sram $T=16 3994 0 0 $X=-8 $Y=3930
XX73A2B172311_2 3 2 12 26 fill_sram $T=184 3994 0 0 $X=160 $Y=3930
XX73A2B172313_1 3 2 13 27 fill_sram $T=16 5302 0 0 $X=-8 $Y=5238
XX73A2B172313_2 3 2 13 27 fill_sram $T=184 5302 0 0 $X=160 $Y=5238
XX73A2B172315_1 3 2 15 23 fill_sram $T=16 70 0 0 $X=-8 $Y=6
XX73A2B172315_2 3 2 15 23 fill_sram $T=184 70 0 0 $X=160 $Y=6
.ends sram_lvs_grid
.subckt sram_array_1r_4c 2 3 4 5 6 7 8 9 10 11 12
+	13 14 15 16 17 18 19 20 21 22
XX73A2B172379 8 10 9 14 13 12 11 21 22 sram_6T_1finger $T=3024 16 0 0 $X=2970 $Y=-64
XX73A2B172380 6 10 7 16 15 12 11 21 22 sram_6T_1finger $T=2016 16 0 0 $X=1962 $Y=-64
XX73A2B172381 4 10 5 18 17 12 11 21 22 sram_6T_1finger $T=1008 16 0 0 $X=954 $Y=-64
XX73A2B172382 2 10 3 20 19 12 11 21 22 sram_6T_1finger $T=0 16 0 0 $X=-54 $Y=-64
XX73A2B172383 11 12 21 22 fill_sram $T=2826 0 0 0 $X=2802 $Y=-64
XX73A2B172384 11 12 21 22 fill_sram $T=1818 0 0 0 $X=1794 $Y=-64
XX73A2B172385 11 12 21 22 fill_sram $T=810 0 0 0 $X=786 $Y=-64
.ends sram_array_1r_4c
.subckt equalizer 2 3 4 5 6 7 8
XX73A2B172386_1 6 5 2 2 7 2 8 fill_sram_nmos $T=24 70 0 0 $X=0 $Y=6
XX73A2B172386_2 6 5 5 5 7 5 8 fill_sram_nmos $T=192 70 0 0 $X=168 $Y=6
XX73A2B172386_3 6 5 2 2 7 2 8 fill_sram_nmos $T=360 70 0 0 $X=335 $Y=6
XX73A2B172386_4 6 5 4 4 7 4 8 fill_sram_nmos $T=528 70 0 0 $X=504 $Y=6
XX73A2B172386_5 6 5 2 2 7 2 8 fill_sram_nmos $T=696 70 0 0 $X=672 $Y=6
XX73A2B172386_6 6 5 5 5 7 5 8 fill_sram_nmos $T=864 70 0 0 $X=840 $Y=6
XX73A2B172386_7 6 5 4 4 7 4 8 fill_sram_nmos $T=1032 70 0 0 $X=1008 $Y=6
XX73A2B172386_8 6 5 5 5 7 5 8 fill_sram_nmos $T=1200 70 0 0 $X=1176 $Y=6
.ends equalizer
.subckt buffer_top 2 3 4 5 6 7 8
XX73A2B172394 2 3 5 6 2 7 8 inverter_buf_top_level_v1 $T=504 86 0 0 $X=504 $Y=6
XX73A2B172395 4 3 5 6 7 8 inverter_buf_top_leve $T=0 86 0 0 $X=0 $Y=6
.ends buffer_top
.subckt column_decoder_read_cell 2 3 4 5 6 7 8 9 10 11 12
+	13
XX73A2B172396_1 9 8 12 2 13 fill_sram_inverted_pmos_read $T=24 716 1 0 $X=0 $Y=0
XX73A2B172396_2 9 8 12 10 13 fill_sram_inverted_pmos_read $T=192 716 1 0 $X=168 $Y=0
XX73A2B172396_3 9 8 12 7 13 fill_sram_inverted_pmos_read $T=360 716 1 0 $X=335 $Y=0
XX73A2B172396_4 9 8 12 11 13 fill_sram_inverted_pmos_read $T=528 716 1 0 $X=504 $Y=0
XX73A2B172396_5 9 8 12 5 13 fill_sram_inverted_pmos_read $T=696 716 1 0 $X=672 $Y=0
.ends column_decoder_read_cell
.subckt buffer_top_inverted 2 3 4 5 6 7 8
XX73A2B172401 2 3 5 6 2 7 8 inverter_buf_top_level_v1 $T=504 86 0 0 $X=504 $Y=6
XX73A2B172402 4 3 5 6 7 8 inverter_buf_top_leve $T=0 86 0 0 $X=0 $Y=6
.ends buffer_top_inverted
.subckt write_buffer_cell 4 6 7 8 11 12 13 14 15 18 19
MM1 8 3 11 nmos  W=2.1e-08 L=1.5e-08 NFIN=2 ADEO=2.835e-16 ASEO=2.835e-16 PDEO=5.85e-08
+	 PSEO=5.85e-08 $X=1848 $Y=864  $PIN_XY=1878,862,1848,864,1818,862 $DEVICE_ID=1001
MM2 3 9 11 nmos  W=2.1e-08 L=1.5e-08 NFIN=2 ADEO=2.835e-16 ASEO=5.67e-16 PDEO=5.85e-08
+	 PSEO=1.17e-07 $X=1848 $Y=390  $PIN_XY=1878,572,1848,390,1818,572 $DEVICE_ID=1001
MM3 11 6 16 nmos  W=2.1e-08 L=1.5e-08 NFIN=2 ADEO=5.67e-16 ASEO=5.67e-16 PDEO=1.17e-07
+	 PSEO=1.17e-07 $X=1680 $Y=390  $PIN_XY=1710,572,1680,390,1650,572 $DEVICE_ID=1001
MM4 16 4 9 nmos  W=2.1e-08 L=1.5e-08 NFIN=2 ADEO=5.67e-16 ASEO=2.835e-16 PDEO=1.17e-07
+	 PSEO=5.85e-08 $X=1512 $Y=390  $PIN_XY=1542,572,1512,390,1482,572 $DEVICE_ID=1001
MM5 11 4 5 nmos  W=2.1e-08 L=1.5e-08 NFIN=2 ADEO=2.835e-16 ASEO=2.835e-16 PDEO=5.85e-08
+	 PSEO=5.85e-08 $X=1176 $Y=390  $PIN_XY=1206,572,1176,390,1146,572 $DEVICE_ID=1001
MM6 10 5 17 nmos  W=2.1e-08 L=1.5e-08 NFIN=2 ADEO=2.835e-16 ASEO=5.67e-16 PDEO=5.85e-08
+	 PSEO=1.17e-07 $X=840 $Y=390  $PIN_XY=870,572,840,390,810,572 $DEVICE_ID=1001
MM7 17 6 11 nmos  W=2.1e-08 L=1.5e-08 NFIN=2 ADEO=5.67e-16 ASEO=5.67e-16 PDEO=1.17e-07
+	 PSEO=1.17e-07 $X=672 $Y=390  $PIN_XY=702,572,672,390,642,572 $DEVICE_ID=1001
MM8 11 2 7 nmos  W=2.1e-08 L=1.5e-08 NFIN=2 ADEO=2.835e-16 ASEO=2.835e-16 PDEO=5.85e-08
+	 PSEO=5.85e-08 $X=504 $Y=864  $PIN_XY=534,862,504,864,474,862 $DEVICE_ID=1001
MM9 11 10 2 nmos  W=2.1e-08 L=1.5e-08 NFIN=2 ADEO=5.67e-16 ASEO=2.835e-16 PDEO=1.17e-07
+	 PSEO=5.85e-08 $X=504 $Y=390  $PIN_XY=534,572,504,390,474,572 $DEVICE_ID=1001
XX73A2B172403 4 5 11 12 14 15 18 inverter_write $T=1398 700 0 180 $X=954 $Y=0
XX73A2B172404_1 11 13 14 19 fill_sram $T=642 718 0 0 $X=618 $Y=653
XX73A2B172404_2 11 13 14 19 fill_sram $T=810 718 0 0 $X=786 $Y=653
XX73A2B172404_3 11 13 14 19 fill_sram $T=978 718 0 0 $X=954 $Y=653
XX73A2B172404_4 11 13 14 19 fill_sram $T=1146 718 0 0 $X=1122 $Y=653
XX73A2B172404_5 11 13 14 19 fill_sram $T=1314 718 0 0 $X=1290 $Y=653
XX73A2B172404_6 11 13 14 19 fill_sram $T=1482 718 0 0 $X=1458 $Y=653
XX73A2B172410_1 13 11 14 8 19 fill_sram_inverted_pmos_write $T=2046 718 1 180 $X=1794 $Y=653
XX73A2B172410_2 13 11 14 11 19 fill_sram_inverted_pmos_write $T=1878 718 1 180 $X=1626 $Y=653
XX73A2B172412_1 13 11 14 7 19 fill_sram_inverted_pmos_write $T=306 718 0 0 $X=282 $Y=653
XX73A2B172412_2 13 11 14 11 19 fill_sram_inverted_pmos_write $T=474 718 0 0 $X=450 $Y=653
XX73A2B172414 9 3 4 6 12 11 16 14 15 18 and_v1 $T=1344 716 1 0 $X=1290 $Y=0
XX73A2B172415 10 2 5 6 12 11 17 14 15 18 and $T=1008 716 0 180 $X=282 $Y=0
.ends write_buffer_cell
.subckt column_decoder_write_cell 2 3 4 5 6 7 8 9 10
XX73A2B172416_1 8 7 9 10 fill_sram_inverted_write_pmos $T=24 70 0 0 $X=0 $Y=6
XX73A2B172416_2 8 7 9 10 fill_sram_inverted_write_pmos $T=192 70 0 0 $X=168 $Y=6
XX73A2B172416_3 8 7 9 10 fill_sram_inverted_write_pmos $T=360 70 0 0 $X=335 $Y=6
XX73A2B172416_4 8 7 9 10 fill_sram_inverted_write_pmos $T=528 70 0 0 $X=504 $Y=6
.ends column_decoder_write_cell
.subckt VCELLR3 2 3 4 5 6 7 8 9 10 11 12
+	13 14 15 16 17 18 19 20 21 22 23
MM1 3 13 16 nmos  W=2.1e-08 L=1.5e-08 NFIN=2 ADEO=2.835e-16 ASEO=2.835e-16 PDEO=5.85e-08
+	 PSEO=5.85e-08 $X=1230 $Y=1524  $PIN_XY=1260,1522,1230,1524,1200,1522 $DEVICE_ID=1001
MM2 3 11 16 nmos  W=2.1e-08 L=1.5e-08 NFIN=2 ADEO=2.835e-16 ASEO=2.835e-16 PDEO=5.85e-08
+	 PSEO=5.85e-08 $X=894 $Y=1524  $PIN_XY=924,1522,894,1524,864,1522 $DEVICE_ID=1001
MM3 3 9 16 nmos  W=2.1e-08 L=1.5e-08 NFIN=2 ADEO=2.835e-16 ASEO=2.835e-16 PDEO=5.85e-08
+	 PSEO=5.85e-08 $X=558 $Y=1524  $PIN_XY=588,1522,558,1524,528,1522 $DEVICE_ID=1001
MM4 3 6 16 nmos  W=2.1e-08 L=1.5e-08 NFIN=2 ADEO=2.835e-16 ASEO=2.835e-16 PDEO=5.85e-08
+	 PSEO=5.85e-08 $X=222 $Y=1524  $PIN_XY=252,1522,222,1524,192,1522 $DEVICE_ID=1001
MM5 3 7 17 pmos  W=2.1e-08 L=1.5e-08 NFIN=4 ADEO=5.67e-16 ASEO=5.67e-16 PDEO=1.17e-07
+	 PSEO=1.17e-07 $X=222 $Y=2232  $PIN_XY=(252,2346,252,2176),222,2232,(192,2346,192,2176) $DEVICE_ID=1003
MM6 2 5 15 pmos  W=2.1e-08 L=1.5e-08 NFIN=4 ADEO=5.67e-16 ASEO=5.67e-16 PDEO=1.17e-07
+	 PSEO=1.17e-07 $X=222 $Y=924  $PIN_XY=(252,1038,252,868),222,924,(192,1038,192,868) $DEVICE_ID=1003
XX73A2B172420_1 16 15 19 22 fill_sram_inverted $T=360 1376 1 0 $X=335 $Y=660
XX73A2B172420_2 16 15 19 22 fill_sram_inverted $T=528 1376 1 0 $X=504 $Y=660
XX73A2B172420_3 16 15 19 22 fill_sram_inverted $T=696 1376 1 0 $X=672 $Y=660
XX73A2B172420_4 16 15 19 22 fill_sram_inverted $T=864 1376 1 0 $X=840 $Y=660
XX73A2B172420_5 16 15 19 22 fill_sram_inverted $T=1032 1376 1 0 $X=1008 $Y=660
XX73A2B172420_6 16 15 19 22 fill_sram_inverted $T=1200 1376 1 0 $X=1176 $Y=660
XX73A2B172426_1 18 17 20 23 fill_sram_inverted $T=360 2684 1 0 $X=335 $Y=1968
XX73A2B172426_2 18 17 20 23 fill_sram_inverted $T=528 2684 1 0 $X=504 $Y=1968
XX73A2B172426_3 18 17 20 23 fill_sram_inverted $T=696 2684 1 0 $X=672 $Y=1968
XX73A2B172426_4 18 17 20 23 fill_sram_inverted $T=864 2684 1 0 $X=840 $Y=1968
XX73A2B172426_5 18 17 20 23 fill_sram_inverted $T=1032 2684 1 0 $X=1008 $Y=1968
XX73A2B172426_6 18 17 20 23 fill_sram_inverted $T=1200 2684 1 0 $X=1176 $Y=1968
XX73A2B172432_1 16 15 19 22 fill_sram_inverted_nmos $T=24 1376 1 0 $X=24 $Y=660
XX73A2B172432_2 16 15 19 22 fill_sram_inverted_nmos $T=192 1376 1 0 $X=192 $Y=660
XX73A2B172434_1 18 17 20 23 fill_sram_inverted_nmos $T=24 2684 1 0 $X=24 $Y=1968
XX73A2B172434_2 18 17 20 23 fill_sram_inverted_nmos $T=192 2684 1 0 $X=192 $Y=1968
XX73A2B172436_1 15 14 21 14 22 fill_sram_pmos $T=24 70 0 0 $X=24 $Y=6
XX73A2B172436_2 15 14 21 2 22 fill_sram_pmos $T=192 70 0 0 $X=192 $Y=6
XX73A2B172436_3 15 14 21 14 22 fill_sram_pmos $T=360 70 0 0 $X=360 $Y=6
XX73A2B172436_4 15 14 21 2 22 fill_sram_pmos $T=528 70 0 0 $X=528 $Y=6
XX73A2B172436_5 15 14 21 14 22 fill_sram_pmos $T=696 70 0 0 $X=696 $Y=6
XX73A2B172436_6 15 14 21 2 22 fill_sram_pmos $T=864 70 0 0 $X=864 $Y=6
XX73A2B172436_7 15 14 21 14 22 fill_sram_pmos $T=1032 70 0 0 $X=1032 $Y=6
XX73A2B172436_8 15 14 21 2 22 fill_sram_pmos $T=1200 70 0 0 $X=1200 $Y=6
XX73A2B172444_1 17 16 19 16 23 fill_sram_pmos $T=24 1378 0 0 $X=24 $Y=1314
XX73A2B172444_2 17 16 19 3 23 fill_sram_pmos $T=192 1378 0 0 $X=192 $Y=1314
XX73A2B172444_3 17 16 19 16 23 fill_sram_pmos $T=360 1378 0 0 $X=360 $Y=1314
XX73A2B172444_4 17 16 19 3 23 fill_sram_pmos $T=528 1378 0 0 $X=528 $Y=1314
XX73A2B172444_5 17 16 19 16 23 fill_sram_pmos $T=696 1378 0 0 $X=696 $Y=1314
XX73A2B172444_6 17 16 19 3 23 fill_sram_pmos $T=864 1378 0 0 $X=864 $Y=1314
XX73A2B172444_7 17 16 19 16 23 fill_sram_pmos $T=1032 1378 0 0 $X=1032 $Y=1314
XX73A2B172444_8 17 16 19 3 23 fill_sram_pmos $T=1200 1378 0 0 $X=1200 $Y=1314
.ends VCELLR3

* Hierarchy Level 2
.subckt bitline_conditioning 2 3 4 5 6 7 8 9 10 11 12
+	13 14 15 16 17 18 19 20 21 22 23
+	24
MM1 18 2 20 pmos  W=2.1e-08 L=1.5e-08 NFIN=4 ADEO=5.67e-16 ASEO=1.134e-15 PDEO=1.17e-07
+	 PSEO=2.34e-07 $X=7728 $Y=419  $PIN_XY=(7758,508,7758,338),7728,419,(7698,508,7698,338) $DEVICE_ID=1003
MM2 20 2 18 pmos  W=2.1e-08 L=1.5e-08 NFIN=4 ADEO=1.134e-15 ASEO=1.134e-15 PDEO=2.34e-07
+	 PSEO=2.34e-07 $X=7560 $Y=419  $PIN_XY=(7590,508,7590,338),7560,419,(7530,508,7530,338) $DEVICE_ID=1003
MM3 18 2 17 pmos  W=2.1e-08 L=1.5e-08 NFIN=4 ADEO=1.134e-15 ASEO=1.134e-15 PDEO=2.34e-07
+	 PSEO=2.34e-07 $X=7392 $Y=419  $PIN_XY=(7422,508,7422,338),7392,419,(7362,508,7362,338) $DEVICE_ID=1003
MM4 16 2 20 pmos  W=2.1e-08 L=1.5e-08 NFIN=4 ADEO=5.67e-16 ASEO=1.134e-15 PDEO=1.17e-07
+	 PSEO=2.34e-07 $X=7224 $Y=887  $PIN_XY=(7254,968,7254,798),7224,887,(7194,968,7194,798) $DEVICE_ID=1003
MM5 17 2 18 pmos  W=2.1e-08 L=1.5e-08 NFIN=4 ADEO=1.134e-15 ASEO=5.67e-16 PDEO=2.34e-07
+	 PSEO=1.17e-07 $X=7224 $Y=419  $PIN_XY=(7254,508,7254,338),7224,419,(7194,508,7194,338) $DEVICE_ID=1003
MM6 20 2 16 pmos  W=2.1e-08 L=1.5e-08 NFIN=4 ADEO=1.134e-15 ASEO=1.134e-15 PDEO=2.34e-07
+	 PSEO=2.34e-07 $X=7056 $Y=887  $PIN_XY=(7086,968,7086,798),7056,887,(7026,968,7026,798) $DEVICE_ID=1003
MM7 16 2 15 pmos  W=2.1e-08 L=1.5e-08 NFIN=4 ADEO=1.134e-15 ASEO=1.134e-15 PDEO=2.34e-07
+	 PSEO=2.34e-07 $X=6888 $Y=887  $PIN_XY=(6918,968,6918,798),6888,887,(6858,968,6858,798) $DEVICE_ID=1003
MM8 20 2 17 pmos  W=2.1e-08 L=1.5e-08 NFIN=4 ADEO=5.67e-16 ASEO=1.134e-15 PDEO=1.17e-07
+	 PSEO=2.34e-07 $X=6888 $Y=419  $PIN_XY=(6918,508,6918,338),6888,419,(6858,508,6858,338) $DEVICE_ID=1003
MM9 15 2 16 pmos  W=2.1e-08 L=1.5e-08 NFIN=4 ADEO=1.134e-15 ASEO=5.67e-16 PDEO=2.34e-07
+	 PSEO=1.17e-07 $X=6720 $Y=887  $PIN_XY=(6750,968,6750,798),6720,887,(6690,968,6690,798) $DEVICE_ID=1003
MM10 17 2 20 pmos  W=2.1e-08 L=1.5e-08 NFIN=4 ADEO=1.134e-15 ASEO=5.67e-16 PDEO=2.34e-07
+	 PSEO=1.17e-07 $X=6720 $Y=419  $PIN_XY=(6750,508,6750,338),6720,419,(6690,508,6690,338) $DEVICE_ID=1003
MM11 20 2 15 pmos  W=2.1e-08 L=1.5e-08 NFIN=4 ADEO=5.67e-16 ASEO=1.134e-15 PDEO=1.17e-07
+	 PSEO=2.34e-07 $X=6384 $Y=887  $PIN_XY=(6414,968,6414,798),6384,887,(6354,968,6354,798) $DEVICE_ID=1003
MM12 15 2 20 pmos  W=2.1e-08 L=1.5e-08 NFIN=4 ADEO=1.134e-15 ASEO=5.67e-16 PDEO=2.34e-07
+	 PSEO=1.17e-07 $X=6216 $Y=887  $PIN_XY=(6246,968,6246,798),6216,887,(6186,968,6186,798) $DEVICE_ID=1003
MM13 14 2 20 pmos  W=2.1e-08 L=1.5e-08 NFIN=4 ADEO=5.67e-16 ASEO=1.134e-15 PDEO=1.17e-07
+	 PSEO=2.34e-07 $X=5712 $Y=419  $PIN_XY=(5742,508,5742,338),5712,419,(5682,508,5682,338) $DEVICE_ID=1003
MM14 20 2 14 pmos  W=2.1e-08 L=1.5e-08 NFIN=4 ADEO=1.134e-15 ASEO=1.134e-15 PDEO=2.34e-07
+	 PSEO=2.34e-07 $X=5544 $Y=419  $PIN_XY=(5574,508,5574,338),5544,419,(5514,508,5514,338) $DEVICE_ID=1003
MM15 14 2 13 pmos  W=2.1e-08 L=1.5e-08 NFIN=4 ADEO=1.134e-15 ASEO=1.134e-15 PDEO=2.34e-07
+	 PSEO=2.34e-07 $X=5376 $Y=419  $PIN_XY=(5406,508,5406,338),5376,419,(5346,508,5346,338) $DEVICE_ID=1003
MM16 12 2 20 pmos  W=2.1e-08 L=1.5e-08 NFIN=4 ADEO=5.67e-16 ASEO=1.134e-15 PDEO=1.17e-07
+	 PSEO=2.34e-07 $X=5208 $Y=887  $PIN_XY=(5238,968,5238,798),5208,887,(5178,968,5178,798) $DEVICE_ID=1003
MM17 13 2 14 pmos  W=2.1e-08 L=1.5e-08 NFIN=4 ADEO=1.134e-15 ASEO=5.67e-16 PDEO=2.34e-07
+	 PSEO=1.17e-07 $X=5208 $Y=419  $PIN_XY=(5238,508,5238,338),5208,419,(5178,508,5178,338) $DEVICE_ID=1003
MM18 20 2 12 pmos  W=2.1e-08 L=1.5e-08 NFIN=4 ADEO=1.134e-15 ASEO=1.134e-15 PDEO=2.34e-07
+	 PSEO=2.34e-07 $X=5040 $Y=887  $PIN_XY=(5070,968,5070,798),5040,887,(5010,968,5010,798) $DEVICE_ID=1003
MM19 12 2 11 pmos  W=2.1e-08 L=1.5e-08 NFIN=4 ADEO=1.134e-15 ASEO=1.134e-15 PDEO=2.34e-07
+	 PSEO=2.34e-07 $X=4872 $Y=887  $PIN_XY=(4902,968,4902,798),4872,887,(4842,968,4842,798) $DEVICE_ID=1003
MM20 20 2 13 pmos  W=2.1e-08 L=1.5e-08 NFIN=4 ADEO=5.67e-16 ASEO=1.134e-15 PDEO=1.17e-07
+	 PSEO=2.34e-07 $X=4872 $Y=419  $PIN_XY=(4902,508,4902,338),4872,419,(4842,508,4842,338) $DEVICE_ID=1003
MM21 11 2 12 pmos  W=2.1e-08 L=1.5e-08 NFIN=4 ADEO=1.134e-15 ASEO=5.67e-16 PDEO=2.34e-07
+	 PSEO=1.17e-07 $X=4704 $Y=887  $PIN_XY=(4734,968,4734,798),4704,887,(4674,968,4674,798) $DEVICE_ID=1003
MM22 13 2 20 pmos  W=2.1e-08 L=1.5e-08 NFIN=4 ADEO=1.134e-15 ASEO=5.67e-16 PDEO=2.34e-07
+	 PSEO=1.17e-07 $X=4704 $Y=419  $PIN_XY=(4734,508,4734,338),4704,419,(4674,508,4674,338) $DEVICE_ID=1003
MM23 20 2 11 pmos  W=2.1e-08 L=1.5e-08 NFIN=4 ADEO=5.67e-16 ASEO=1.134e-15 PDEO=1.17e-07
+	 PSEO=2.34e-07 $X=4368 $Y=887  $PIN_XY=(4398,968,4398,798),4368,887,(4338,968,4338,798) $DEVICE_ID=1003
MM24 11 2 20 pmos  W=2.1e-08 L=1.5e-08 NFIN=4 ADEO=1.134e-15 ASEO=5.67e-16 PDEO=2.34e-07
+	 PSEO=1.17e-07 $X=4200 $Y=887  $PIN_XY=(4230,968,4230,798),4200,887,(4170,968,4170,798) $DEVICE_ID=1003
MM25 10 2 20 pmos  W=2.1e-08 L=1.5e-08 NFIN=4 ADEO=5.67e-16 ASEO=1.134e-15 PDEO=1.17e-07
+	 PSEO=2.34e-07 $X=3696 $Y=419  $PIN_XY=(3726,508,3726,338),3696,419,(3666,508,3666,338) $DEVICE_ID=1003
MM26 20 2 10 pmos  W=2.1e-08 L=1.5e-08 NFIN=4 ADEO=1.134e-15 ASEO=1.134e-15 PDEO=2.34e-07
+	 PSEO=2.34e-07 $X=3528 $Y=419  $PIN_XY=(3558,508,3558,338),3528,419,(3498,508,3498,338) $DEVICE_ID=1003
MM27 10 2 9 pmos  W=2.1e-08 L=1.5e-08 NFIN=4 ADEO=1.134e-15 ASEO=1.134e-15 PDEO=2.34e-07
+	 PSEO=2.34e-07 $X=3360 $Y=419  $PIN_XY=(3390,508,3390,338),3360,419,(3330,508,3330,338) $DEVICE_ID=1003
MM28 8 2 20 pmos  W=2.1e-08 L=1.5e-08 NFIN=4 ADEO=5.67e-16 ASEO=1.134e-15 PDEO=1.17e-07
+	 PSEO=2.34e-07 $X=3192 $Y=887  $PIN_XY=(3222,968,3222,798),3192,887,(3162,968,3162,798) $DEVICE_ID=1003
MM29 9 2 10 pmos  W=2.1e-08 L=1.5e-08 NFIN=4 ADEO=1.134e-15 ASEO=5.67e-16 PDEO=2.34e-07
+	 PSEO=1.17e-07 $X=3192 $Y=419  $PIN_XY=(3222,508,3222,338),3192,419,(3162,508,3162,338) $DEVICE_ID=1003
MM30 20 2 8 pmos  W=2.1e-08 L=1.5e-08 NFIN=4 ADEO=1.134e-15 ASEO=1.134e-15 PDEO=2.34e-07
+	 PSEO=2.34e-07 $X=3024 $Y=887  $PIN_XY=(3054,968,3054,798),3024,887,(2994,968,2994,798) $DEVICE_ID=1003
MM31 8 2 7 pmos  W=2.1e-08 L=1.5e-08 NFIN=4 ADEO=1.134e-15 ASEO=1.134e-15 PDEO=2.34e-07
+	 PSEO=2.34e-07 $X=2856 $Y=887  $PIN_XY=(2886,968,2886,798),2856,887,(2826,968,2826,798) $DEVICE_ID=1003
MM32 20 2 9 pmos  W=2.1e-08 L=1.5e-08 NFIN=4 ADEO=5.67e-16 ASEO=1.134e-15 PDEO=1.17e-07
+	 PSEO=2.34e-07 $X=2856 $Y=419  $PIN_XY=(2886,508,2886,338),2856,419,(2826,508,2826,338) $DEVICE_ID=1003
MM33 7 2 8 pmos  W=2.1e-08 L=1.5e-08 NFIN=4 ADEO=1.134e-15 ASEO=5.67e-16 PDEO=2.34e-07
+	 PSEO=1.17e-07 $X=2688 $Y=887  $PIN_XY=(2718,968,2718,798),2688,887,(2658,968,2658,798) $DEVICE_ID=1003
MM34 9 2 20 pmos  W=2.1e-08 L=1.5e-08 NFIN=4 ADEO=1.134e-15 ASEO=5.67e-16 PDEO=2.34e-07
+	 PSEO=1.17e-07 $X=2688 $Y=419  $PIN_XY=(2718,508,2718,338),2688,419,(2658,508,2658,338) $DEVICE_ID=1003
MM35 20 2 7 pmos  W=2.1e-08 L=1.5e-08 NFIN=4 ADEO=5.67e-16 ASEO=1.134e-15 PDEO=1.17e-07
+	 PSEO=2.34e-07 $X=2352 $Y=887  $PIN_XY=(2382,968,2382,798),2352,887,(2322,968,2322,798) $DEVICE_ID=1003
MM36 7 2 20 pmos  W=2.1e-08 L=1.5e-08 NFIN=4 ADEO=1.134e-15 ASEO=5.67e-16 PDEO=2.34e-07
+	 PSEO=1.17e-07 $X=2184 $Y=887  $PIN_XY=(2214,968,2214,798),2184,887,(2154,968,2154,798) $DEVICE_ID=1003
MM37 6 2 20 pmos  W=2.1e-08 L=1.5e-08 NFIN=4 ADEO=5.67e-16 ASEO=1.134e-15 PDEO=1.17e-07
+	 PSEO=2.34e-07 $X=1680 $Y=419  $PIN_XY=(1710,508,1710,338),1680,419,(1650,508,1650,338) $DEVICE_ID=1003
MM38 20 2 6 pmos  W=2.1e-08 L=1.5e-08 NFIN=4 ADEO=1.134e-15 ASEO=1.134e-15 PDEO=2.34e-07
+	 PSEO=2.34e-07 $X=1512 $Y=419  $PIN_XY=(1542,508,1542,338),1512,419,(1482,508,1482,338) $DEVICE_ID=1003
MM39 6 2 5 pmos  W=2.1e-08 L=1.5e-08 NFIN=4 ADEO=1.134e-15 ASEO=1.134e-15 PDEO=2.34e-07
+	 PSEO=2.34e-07 $X=1344 $Y=419  $PIN_XY=(1374,508,1374,338),1344,419,(1314,508,1314,338) $DEVICE_ID=1003
MM40 4 2 20 pmos  W=2.1e-08 L=1.5e-08 NFIN=4 ADEO=5.67e-16 ASEO=1.134e-15 PDEO=1.17e-07
+	 PSEO=2.34e-07 $X=1176 $Y=887  $PIN_XY=(1206,968,1206,798),1176,887,(1146,968,1146,798) $DEVICE_ID=1003
MM41 5 2 6 pmos  W=2.1e-08 L=1.5e-08 NFIN=4 ADEO=1.134e-15 ASEO=5.67e-16 PDEO=2.34e-07
+	 PSEO=1.17e-07 $X=1176 $Y=419  $PIN_XY=(1206,508,1206,338),1176,419,(1146,508,1146,338) $DEVICE_ID=1003
MM42 20 2 4 pmos  W=2.1e-08 L=1.5e-08 NFIN=4 ADEO=1.134e-15 ASEO=1.134e-15 PDEO=2.34e-07
+	 PSEO=2.34e-07 $X=1008 $Y=887  $PIN_XY=(1038,968,1038,798),1008,887,(978,968,978,798) $DEVICE_ID=1003
MM43 4 2 3 pmos  W=2.1e-08 L=1.5e-08 NFIN=4 ADEO=1.134e-15 ASEO=1.134e-15 PDEO=2.34e-07
+	 PSEO=2.34e-07 $X=840 $Y=887  $PIN_XY=(870,968,870,798),840,887,(810,968,810,798) $DEVICE_ID=1003
MM44 20 2 5 pmos  W=2.1e-08 L=1.5e-08 NFIN=4 ADEO=5.67e-16 ASEO=1.134e-15 PDEO=1.17e-07
+	 PSEO=2.34e-07 $X=840 $Y=419  $PIN_XY=(870,508,870,338),840,419,(810,508,810,338) $DEVICE_ID=1003
MM45 3 2 4 pmos  W=2.1e-08 L=1.5e-08 NFIN=4 ADEO=1.134e-15 ASEO=5.67e-16 PDEO=2.34e-07
+	 PSEO=1.17e-07 $X=672 $Y=887  $PIN_XY=(702,968,702,798),672,887,(642,968,642,798) $DEVICE_ID=1003
MM46 5 2 20 pmos  W=2.1e-08 L=1.5e-08 NFIN=4 ADEO=1.134e-15 ASEO=5.67e-16 PDEO=2.34e-07
+	 PSEO=1.17e-07 $X=672 $Y=419  $PIN_XY=(702,508,702,338),672,419,(642,508,642,338) $DEVICE_ID=1003
MM47 20 2 3 pmos  W=2.1e-08 L=1.5e-08 NFIN=4 ADEO=5.67e-16 ASEO=1.134e-15 PDEO=1.17e-07
+	 PSEO=2.34e-07 $X=336 $Y=887  $PIN_XY=(366,968,366,798),336,887,(306,968,306,798) $DEVICE_ID=1003
MM48 3 2 20 pmos  W=2.1e-08 L=1.5e-08 NFIN=4 ADEO=1.134e-15 ASEO=5.67e-16 PDEO=2.34e-07
+	 PSEO=1.17e-07 $X=168 $Y=887  $PIN_XY=(198,968,198,798),168,887,(138,968,138,798) $DEVICE_ID=1003
XX73A2B172179_1 19 20 22 24 fill_sram $T=5850 0 0 0 $X=5826 $Y=-64
XX73A2B172179_2 19 20 22 24 fill_sram $T=6018 0 0 0 $X=5994 $Y=-64
XX73A2B172179_3 19 20 22 24 fill_sram $T=6186 0 0 0 $X=6162 $Y=-64
XX73A2B172179_4 19 20 22 24 fill_sram $T=6354 0 0 0 $X=6330 $Y=-64
XX73A2B172183_1 19 20 22 24 fill_sram $T=1818 0 0 0 $X=1794 $Y=-64
XX73A2B172183_2 19 20 22 24 fill_sram $T=1986 0 0 0 $X=1962 $Y=-64
XX73A2B172183_3 19 20 22 24 fill_sram $T=2154 0 0 0 $X=2130 $Y=-64
XX73A2B172183_4 19 20 22 24 fill_sram $T=2322 0 0 0 $X=2298 $Y=-64
XX73A2B172187_1 19 20 22 24 fill_sram $T=-30 0 0 0 $X=-54 $Y=-64
XX73A2B172187_2 19 20 22 24 fill_sram $T=138 0 0 0 $X=114 $Y=-64
XX73A2B172187_3 19 20 22 24 fill_sram $T=306 0 0 0 $X=282 $Y=-64
XX73A2B172190_1 19 20 22 24 fill_sram $T=3834 0 0 0 $X=3810 $Y=-64
XX73A2B172190_2 19 20 22 24 fill_sram $T=4002 0 0 0 $X=3977 $Y=-64
XX73A2B172190_3 19 20 22 24 fill_sram $T=4170 0 0 0 $X=4146 $Y=-64
XX73A2B172190_4 19 20 22 24 fill_sram $T=4338 0 0 0 $X=4314 $Y=-64
XX73A2B172194 14 2 13 20 19 22 24 equalizer $T=5934 -70 1 180 $X=4482 $Y=-64
XX73A2B172195 16 2 15 20 21 23 24 equalizer $T=7446 1376 0 180 $X=5994 $Y=590
XX73A2B172196 10 2 9 20 19 22 24 equalizer $T=3918 -70 1 180 $X=2466 $Y=-64
XX73A2B172197 8 2 7 20 21 23 24 equalizer $T=3414 1376 0 180 $X=1962 $Y=590
XX73A2B172198 12 2 11 20 21 23 24 equalizer $T=5430 1376 0 180 $X=3977 $Y=590
XX73A2B172199 6 2 5 20 19 22 24 equalizer $T=1902 -70 1 180 $X=450 $Y=-64
XX73A2B172200 4 2 3 20 21 23 24 equalizer $T=1398 1376 0 180 $X=-53 $Y=590
XX73A2B172201 18 2 17 20 19 22 24 equalizer $T=7950 -70 1 180 $X=6498 $Y=-64
XX73A2B172202_1 21 20 23 24 fill_sram_inverted $T=3330 1306 1 0 $X=3306 $Y=590
XX73A2B172202_2 21 20 23 24 fill_sram_inverted $T=3498 1306 1 0 $X=3474 $Y=590
XX73A2B172202_3 21 20 23 24 fill_sram_inverted $T=3666 1306 1 0 $X=3642 $Y=590
XX73A2B172202_4 21 20 23 24 fill_sram_inverted $T=3834 1306 1 0 $X=3810 $Y=590
XX73A2B172206_1 21 20 23 24 fill_sram_inverted $T=1314 1306 1 0 $X=1290 $Y=590
XX73A2B172206_2 21 20 23 24 fill_sram_inverted $T=1482 1306 1 0 $X=1458 $Y=590
XX73A2B172206_3 21 20 23 24 fill_sram_inverted $T=1650 1306 1 0 $X=1626 $Y=590
XX73A2B172206_4 21 20 23 24 fill_sram_inverted $T=1818 1306 1 0 $X=1794 $Y=590
XX73A2B172210_1 21 20 23 24 fill_sram_inverted $T=7362 1306 1 0 $X=7338 $Y=590
XX73A2B172210_2 21 20 23 24 fill_sram_inverted $T=7530 1306 1 0 $X=7506 $Y=590
XX73A2B172210_3 21 20 23 24 fill_sram_inverted $T=7698 1306 1 0 $X=7674 $Y=590
XX73A2B172213_1 21 20 23 24 fill_sram_inverted $T=5346 1306 1 0 $X=5322 $Y=590
XX73A2B172213_2 21 20 23 24 fill_sram_inverted $T=5514 1306 1 0 $X=5490 $Y=590
XX73A2B172213_3 21 20 23 24 fill_sram_inverted $T=5682 1306 1 0 $X=5658 $Y=590
XX73A2B172213_4 21 20 23 24 fill_sram_inverted $T=5850 1306 1 0 $X=5826 $Y=590
.ends bitline_conditioning
.subckt buffer_array 2 3 4 5 6 7 8 9 10 11 12
+	13 14 15 16 17
MM1 10 2 12 nmos  W=2.1e-08 L=1.5e-08 NFIN=2 ADEO=2.835e-16 ASEO=5.67e-16 PDEO=5.85e-08
+	 PSEO=1.17e-07 $X=6774 $Y=396  $PIN_XY=6804,214,6774,396,6744,214 $DEVICE_ID=1001
MM2 12 2 10 nmos  W=2.1e-08 L=1.5e-08 NFIN=2 ADEO=5.67e-16 ASEO=2.835e-16 PDEO=1.17e-07
+	 PSEO=5.85e-08 $X=6606 $Y=396  $PIN_XY=6636,214,6606,396,6576,214 $DEVICE_ID=1001
MM3 10 3 2 nmos  W=2.1e-08 L=1.5e-08 NFIN=2 ADEO=2.835e-16 ASEO=5.67e-16 PDEO=5.85e-08
+	 PSEO=1.17e-07 $X=6270 $Y=396  $PIN_XY=6300,214,6270,396,6240,214 $DEVICE_ID=1001
MM4 2 3 10 nmos  W=2.1e-08 L=1.5e-08 NFIN=2 ADEO=5.67e-16 ASEO=2.835e-16 PDEO=1.17e-07
+	 PSEO=5.85e-08 $X=6102 $Y=396  $PIN_XY=6132,214,6102,396,6072,214 $DEVICE_ID=1001
MM5 10 4 13 nmos  W=2.1e-08 L=1.5e-08 NFIN=2 ADEO=2.835e-16 ASEO=5.67e-16 PDEO=5.85e-08
+	 PSEO=1.17e-07 $X=4758 $Y=396  $PIN_XY=4788,214,4758,396,4728,214 $DEVICE_ID=1001
MM6 13 4 10 nmos  W=2.1e-08 L=1.5e-08 NFIN=2 ADEO=5.67e-16 ASEO=2.835e-16 PDEO=1.17e-07
+	 PSEO=5.85e-08 $X=4590 $Y=396  $PIN_XY=4620,214,4590,396,4560,214 $DEVICE_ID=1001
MM7 10 5 4 nmos  W=2.1e-08 L=1.5e-08 NFIN=2 ADEO=2.835e-16 ASEO=5.67e-16 PDEO=5.85e-08
+	 PSEO=1.17e-07 $X=4254 $Y=396  $PIN_XY=4284,214,4254,396,4224,214 $DEVICE_ID=1001
MM8 4 5 10 nmos  W=2.1e-08 L=1.5e-08 NFIN=2 ADEO=5.67e-16 ASEO=2.835e-16 PDEO=1.17e-07
+	 PSEO=5.85e-08 $X=4086 $Y=396  $PIN_XY=4116,214,4086,396,4056,214 $DEVICE_ID=1001
MM9 10 6 14 nmos  W=2.1e-08 L=1.5e-08 NFIN=2 ADEO=2.835e-16 ASEO=5.67e-16 PDEO=5.85e-08
+	 PSEO=1.17e-07 $X=2742 $Y=396  $PIN_XY=2772,214,2742,396,2712,214 $DEVICE_ID=1001
MM10 14 6 10 nmos  W=2.1e-08 L=1.5e-08 NFIN=2 ADEO=5.67e-16 ASEO=2.835e-16 PDEO=1.17e-07
+	 PSEO=5.85e-08 $X=2574 $Y=396  $PIN_XY=2604,214,2574,396,2544,214 $DEVICE_ID=1001
MM11 10 7 6 nmos  W=2.1e-08 L=1.5e-08 NFIN=2 ADEO=2.835e-16 ASEO=5.67e-16 PDEO=5.85e-08
+	 PSEO=1.17e-07 $X=2238 $Y=396  $PIN_XY=2268,214,2238,396,2208,214 $DEVICE_ID=1001
MM12 6 7 10 nmos  W=2.1e-08 L=1.5e-08 NFIN=2 ADEO=5.67e-16 ASEO=2.835e-16 PDEO=1.17e-07
+	 PSEO=5.85e-08 $X=2070 $Y=396  $PIN_XY=2100,214,2070,396,2040,214 $DEVICE_ID=1001
MM13 10 8 15 nmos  W=2.1e-08 L=1.5e-08 NFIN=2 ADEO=2.835e-16 ASEO=5.67e-16 PDEO=5.85e-08
+	 PSEO=1.17e-07 $X=894 $Y=396  $PIN_XY=924,214,894,396,864,214 $DEVICE_ID=1001
MM14 15 8 10 nmos  W=2.1e-08 L=1.5e-08 NFIN=2 ADEO=5.67e-16 ASEO=2.835e-16 PDEO=1.17e-07
+	 PSEO=5.85e-08 $X=726 $Y=396  $PIN_XY=756,214,726,396,696,214 $DEVICE_ID=1001
MM15 10 9 8 nmos  W=2.1e-08 L=1.5e-08 NFIN=2 ADEO=2.835e-16 ASEO=5.67e-16 PDEO=5.85e-08
+	 PSEO=1.17e-07 $X=390 $Y=396  $PIN_XY=420,214,390,396,360,214 $DEVICE_ID=1001