* top_level


.subckt and_v1 2 3 4 5 6 
*.CELL_INFO DEVICE_LEVELED 1-nmos
M1 3 2 6 pmos W=2.1e-08 L=1.5e-08 NFIN=4 ADEO=5.67e-16 ASEO=1.134e-15 PDEO=1.17e-07 
+    PSEO=2.34e-07 $X=0.1260 $Y=0.0815 
M2 6 5 2 pmos W=2.1e-08 L=1.5e-08 NFIN=4 ADEO=1.134e-15 ASEO=1.134e-15 PDEO=2.34e-07 
+    PSEO=2.34e-07 $X=0.0840 $Y=0.0815 
M3 2 4 6 pmos W=2.1e-08 L=1.5e-08 NFIN=4 ADEO=1.134e-15 ASEO=5.67e-16 PDEO=2.34e-07 
+    PSEO=1.17e-07 $X=0.0420 $Y=0.0815 
.ends and_v1

.subckt VCELLR4 3 5 7 9 11 13 15 17 19 20 29 30 31 32 33 34 35 36 37 38 39 40 41 
+    42 43 44 53 54 55 65 66 67 68 69 70 71 72 
M1 17 19 45 nmos W=2.1e-08 L=1.5e-08 NFIN=2 ADEO=2.835e-16 ASEO=5.67e-16 PDEO=5.85e-08 
+    PSEO=1.17e-07 $X=0.9240 $Y=0.3635 
M2 72 20 21 nmos W=2.1e-08 L=1.5e-08 NFIN=2 ADEO=2.835e-16 ASEO=5.67e-16 PDEO=5.85e-08 
+    PSEO=1.17e-07 $X=0.9240 $Y=0.2900 
M3 45 46 55 nmos W=2.1e-08 L=1.5e-08 NFIN=2 ADEO=5.67e-16 ASEO=5.67e-16 PDEO=1.17e-07 
+    PSEO=1.17e-07 $X=0.8820 $Y=0.4085 
M4 21 22 55 nmos W=2.1e-08 L=1.5e-08 NFIN=2 ADEO=5.67e-16 ASEO=5.67e-16 PDEO=1.17e-07 
+    PSEO=1.17e-07 $X=0.8820 $Y=0.2450 
M5 55 45 46 nmos W=2.1e-08 L=1.5e-08 NFIN=2 ADEO=5.67e-16 ASEO=5.67e-16 PDEO=1.17e-07 
+    PSEO=1.17e-07 $X=0.8400 $Y=0.4085 
M6 55 21 22 nmos W=2.1e-08 L=1.5e-08 NFIN=2 ADEO=5.67e-16 ASEO=5.67e-16 PDEO=1.17e-07 
+    PSEO=1.17e-07 $X=0.8400 $Y=0.2450 
M7 46 19 15 nmos W=2.1e-08 L=1.5e-08 NFIN=2 ADEO=5.67e-16 ASEO=2.835e-16 PDEO=1.17e-07 
+    PSEO=5.85e-08 $X=0.7980 $Y=0.3635 
M8 22 20 71 nmos W=2.1e-08 L=1.5e-08 NFIN=2 ADEO=5.67e-16 ASEO=2.835e-16 PDEO=1.17e-07 
+    PSEO=5.85e-08 $X=0.7980 $Y=0.2900 
M9 13 19 47 nmos W=2.1e-08 L=1.5e-08 NFIN=2 ADEO=2.835e-16 ASEO=5.67e-16 PDEO=5.85e-08 
+    PSEO=1.17e-07 $X=0.6720 $Y=0.3635 
M10 69 20 23 nmos W=2.1e-08 L=1.5e-08 NFIN=2 ADEO=2.835e-16 ASEO=5.67e-16 PDEO=5.85e-08 
+    PSEO=1.17e-07 $X=0.6720 $Y=0.2900 
M11 47 48 55 nmos W=2.1e-08 L=1.5e-08 NFIN=2 ADEO=5.67e-16 ASEO=5.67e-16 PDEO=1.17e-07 
+    PSEO=1.17e-07 $X=0.6300 $Y=0.4085 
M12 23 24 55 nmos W=2.1e-08 L=1.5e-08 NFIN=2 ADEO=5.67e-16 ASEO=5.67e-16 PDEO=1.17e-07 
+    PSEO=1.17e-07 $X=0.6300 $Y=0.2450 
M13 55 47 48 nmos W=2.1e-08 L=1.5e-08 NFIN=2 ADEO=5.67e-16 ASEO=5.67e-16 PDEO=1.17e-07 
+    PSEO=1.17e-07 $X=0.5880 $Y=0.4085 
M14 55 23 24 nmos W=2.1e-08 L=1.5e-08 NFIN=2 ADEO=5.67e-16 ASEO=5.67e-16 PDEO=1.17e-07 
+    PSEO=1.17e-07 $X=0.5880 $Y=0.2450 
M15 48 19 11 nmos W=2.1e-08 L=1.5e-08 NFIN=2 ADEO=5.67e-16 ASEO=2.835e-16 PDEO=1.17e-07 
+    PSEO=5.85e-08 $X=0.5460 $Y=0.3635 
M16 24 20 68 nmos W=2.1e-08 L=1.5e-08 NFIN=2 ADEO=5.67e-16 ASEO=2.835e-16 PDEO=1.17e-07 
+    PSEO=5.85e-08 $X=0.5460 $Y=0.2900 
M17 9 19 49 nmos W=2.1e-08 L=1.5e-08 NFIN=2 ADEO=2.835e-16 ASEO=5.67e-16 PDEO=5.85e-08 
+    PSEO=1.17e-07 $X=0.4200 $Y=0.3635 
M18 67 20 25 nmos W=2.1e-08 L=1.5e-08 NFIN=2 ADEO=2.835e-16 ASEO=5.67e-16 PDEO=5.85e-08 
+    PSEO=1.17e-07 $X=0.4200 $Y=0.2900 
M19 49 50 55 nmos W=2.1e-08 L=1.5e-08 NFIN=2 ADEO=5.67e-16 ASEO=5.67e-16 PDEO=1.17e-07 
+    PSEO=1.17e-07 $X=0.3780 $Y=0.4085 
M20 25 26 55 nmos W=2.1e-08 L=1.5e-08 NFIN=2 ADEO=5.67e-16 ASEO=5.67e-16 PDEO=1.17e-07 
+    PSEO=1.17e-07 $X=0.3780 $Y=0.2450 
M21 55 49 50 nmos W=2.1e-08 L=1.5e-08 NFIN=2 ADEO=5.67e-16 ASEO=5.67e-16 PDEO=1.17e-07 
+    PSEO=1.17e-07 $X=0.3360 $Y=0.4085 
M22 55 25 26 nmos W=2.1e-08 L=1.5e-08 NFIN=2 ADEO=5.67e-16 ASEO=5.67e-16 PDEO=1.17e-07 
+    PSEO=1.17e-07 $X=0.3360 $Y=0.2450 
M23 50 19 7 nmos W=2.1e-08 L=1.5e-08 NFIN=2 ADEO=5.67e-16 ASEO=2.835e-16 PDEO=1.17e-07 
+    PSEO=5.85e-08 $X=0.2940 $Y=0.3635 
M24 26 20 70 nmos W=2.1e-08 L=1.5e-08 NFIN=2 ADEO=5.67e-16 ASEO=2.835e-16 PDEO=1.17e-07 
+    PSEO=5.85e-08 $X=0.2940 $Y=0.2900 
M25 5 19 51 nmos W=2.1e-08 L=1.5e-08 NFIN=2 ADEO=2.835e-16 ASEO=5.67e-16 PDEO=5.85e-08 
+    PSEO=1.17e-07 $X=0.1680 $Y=0.3635 
M26 66 20 27 nmos W=2.1e-08 L=1.5e-08 NFIN=2 ADEO=2.835e-16 ASEO=5.67e-16 PDEO=5.85e-08 
+    PSEO=1.17e-07 $X=0.1680 $Y=0.2900 
M27 51 52 55 nmos W=2.1e-08 L=1.5e-08 NFIN=2 ADEO=5.67e-16 ASEO=5.67e-16 PDEO=1.17e-07 
+    PSEO=1.17e-07 $X=0.1260 $Y=0.4085 
M28 27 28 55 nmos W=2.1e-08 L=1.5e-08 NFIN=2 ADEO=5.67e-16 ASEO=5.67e-16 PDEO=1.17e-07 
+    PSEO=1.17e-07 $X=0.1260 $Y=0.2450 
M29 55 51 52 nmos W=2.1e-08 L=1.5e-08 NFIN=2 ADEO=5.67e-16 ASEO=5.67e-16 PDEO=1.17e-07 
+    PSEO=1.17e-07 $X=0.0840 $Y=0.4085 
M30 55 27 28 nmos W=2.1e-08 L=1.5e-08 NFIN=2 ADEO=5.67e-16 ASEO=5.67e-16 PDEO=1.17e-07 
+    PSEO=1.17e-07 $X=0.0840 $Y=0.2450 
M31 52 19 3 nmos W=2.1e-08 L=1.5e-08 NFIN=2 ADEO=5.67e-16 ASEO=2.835e-16 PDEO=1.17e-07 
+    PSEO=5.85e-08 $X=0.0420 $Y=0.3635 
M32 28 20 65 nmos W=2.1e-08 L=1.5e-08 NFIN=2 ADEO=5.67e-16 ASEO=2.835e-16 PDEO=1.17e-07 
+    PSEO=5.85e-08 $X=0.0420 $Y=0.2900 
M33 29 30 54 pmos W=2.1e-08 L=1.5e-08 NFIN=4 ADEO=5.67e-16 ASEO=1.134e-15 PDEO=1.17e-07 
+    PSEO=2.34e-07 $X=0.8820 $Y=0.5720 
M34 45 46 54 pmos W=2.1e-08 L=1.5e-08 NFIN=4 ADEO=5.67e-16 ASEO=1.134e-15 PDEO=1.17e-07 
+    PSEO=2.34e-07 $X=0.8820 $Y=0.4085 
M35 21 22 53 pmos W=2.1e-08 L=1.5e-08 NFIN=4 ADEO=5.67e-16 ASEO=1.134e-15 PDEO=1.17e-07 
+    PSEO=2.34e-07 $X=0.8820 $Y=0.2450 
M36 37 38 53 pmos W=2.1e-08 L=1.5e-08 NFIN=4 ADEO=5.67e-16 ASEO=1.134e-15 PDEO=1.17e-07 
+    PSEO=2.34e-07 $X=0.8820 $Y=0.0815 
M37 54 29 30 pmos W=2.1e-08 L=1.5e-08 NFIN=4 ADEO=1.134e-15 ASEO=5.67e-16 PDEO=2.34e-07 
+    PSEO=1.17e-07 $X=0.8400 $Y=0.5720 
M38 54 45 46 pmos W=2.1e-08 L=1.5e-08 NFIN=4 ADEO=1.134e-15 ASEO=5.67e-16 PDEO=2.34e-07 
+    PSEO=1.17e-07 $X=0.8400 $Y=0.4085 
M39 53 21 22 pmos W=2.1e-08 L=1.5e-08 NFIN=4 ADEO=1.134e-15 ASEO=5.67e-16 PDEO=2.34e-07 
+    PSEO=1.17e-07 $X=0.8400 $Y=0.2450 
M40 53 37 38 pmos W=2.1e-08 L=1.5e-08 NFIN=4 ADEO=1.134e-15 ASEO=5.67e-16 PDEO=2.34e-07 
+    PSEO=1.17e-07 $X=0.8400 $Y=0.0815 
M41 31 32 54 pmos W=2.1e-08 L=1.5e-08 NFIN=4 ADEO=5.67e-16 ASEO=1.134e-15 PDEO=1.17e-07 
+    PSEO=2.34e-07 $X=0.6300 $Y=0.5720 
M42 47 48 54 pmos W=2.1e-08 L=1.5e-08 NFIN=4 ADEO=5.67e-16 ASEO=1.134e-15 PDEO=1.17e-07 
+    PSEO=2.34e-07 $X=0.6300 $Y=0.4085 
M43 23 24 53 pmos W=2.1e-08 L=1.5e-08 NFIN=4 ADEO=5.67e-16 ASEO=1.134e-15 PDEO=1.17e-07 
+    PSEO=2.34e-07 $X=0.6300 $Y=0.2450 
M44 39 40 53 pmos W=2.1e-08 L=1.5e-08 NFIN=4 ADEO=5.67e-16 ASEO=1.134e-15 PDEO=1.17e-07 
+    PSEO=2.34e-07 $X=0.6300 $Y=0.0815 
M45 54 31 32 pmos W=2.1e-08 L=1.5e-08 NFIN=4 ADEO=1.134e-15 ASEO=5.67e-16 PDEO=2.34e-07 
+    PSEO=1.17e-07 $X=0.5880 $Y=0.5720 
M46 54 47 48 pmos W=2.1e-08 L=1.5e-08 NFIN=4 ADEO=1.134e-15 ASEO=5.67e-16 PDEO=2.34e-07 
+    PSEO=1.17e-07 $X=0.5880 $Y=0.4085 
M47 53 23 24 pmos W=2.1e-08 L=1.5e-08 NFIN=4 ADEO=1.134e-15 ASEO=5.67e-16 PDEO=2.34e-07 
+    PSEO=1.17e-07 $X=0.5880 $Y=0.2450 
M48 53 39 40 pmos W=2.1e-08 L=1.5e-08 NFIN=4 ADEO=1.134e-15 ASEO=5.67e-16 PDEO=2.34e-07 
+    PSEO=1.17e-07 $X=0.5880 $Y=0.0815 
M49 33 34 54 pmos W=2.1e-08 L=1.5e-08 NFIN=4 ADEO=5.67e-16 ASEO=1.134e-15 PDEO=1.17e-07 
+    PSEO=2.34e-07 $X=0.3780 $Y=0.5720 
M50 49 50 54 pmos W=2.1e-08 L=1.5e-08 NFIN=4 ADEO=5.67e-16 ASEO=1.134e-15 PDEO=1.17e-07 
+    PSEO=2.34e-07 $X=0.3780 $Y=0.4085 
M51 25 26 53 pmos W=2.1e-08 L=1.5e-08 NFIN=4 ADEO=5.67e-16 ASEO=1.134e-15 PDEO=1.17e-07 
+    PSEO=2.34e-07 $X=0.3780 $Y=0.2450 
M52 41 42 53 pmos W=2.1e-08 L=1.5e-08 NFIN=4 ADEO=5.67e-16 ASEO=1.134e-15 PDEO=1.17e-07 
+    PSEO=2.34e-07 $X=0.3780 $Y=0.0815 
M53 54 33 34 pmos W=2.1e-08 L=1.5e-08 NFIN=4 ADEO=1.134e-15 ASEO=5.67e-16 PDEO=2.34e-07 
+    PSEO=1.17e-07 $X=0.3360 $Y=0.5720 
M54 54 49 50 pmos W=2.1e-08 L=1.5e-08 NFIN=4 ADEO=1.134e-15 ASEO=5.67e-16 PDEO=2.34e-07 
+    PSEO=1.17e-07 $X=0.3360 $Y=0.4085 
M55 53 25 26 pmos W=2.1e-08 L=1.5e-08 NFIN=4 ADEO=1.134e-15 ASEO=5.67e-16 PDEO=2.34e-07 
+    PSEO=1.17e-07 $X=0.3360 $Y=0.2450 
M56 53 41 42 pmos W=2.1e-08 L=1.5e-08 NFIN=4 ADEO=1.134e-15 ASEO=5.67e-16 PDEO=2.34e-07 
+    PSEO=1.17e-07 $X=0.3360 $Y=0.0815 
M57 35 36 54 pmos W=2.1e-08 L=1.5e-08 NFIN=4 ADEO=5.67e-16 ASEO=1.134e-15 PDEO=1.17e-07 
+    PSEO=2.34e-07 $X=0.1260 $Y=0.5720 
M58 51 52 54 pmos W=2.1e-08 L=1.5e-08 NFIN=4 ADEO=5.67e-16 ASEO=1.134e-15 PDEO=1.17e-07 
+    PSEO=2.34e-07 $X=0.1260 $Y=0.4085 
M59 27 28 53 pmos W=2.1e-08 L=1.5e-08 NFIN=4 ADEO=5.67e-16 ASEO=1.134e-15 PDEO=1.17e-07 
+    PSEO=2.34e-07 $X=0.1260 $Y=0.2450 
M60 43 44 53 pmos W=2.1e-08 L=1.5e-08 NFIN=4 ADEO=5.67e-16 ASEO=1.134e-15 PDEO=1.17e-07 
+    PSEO=2.34e-07 $X=0.1260 $Y=0.0815 
M61 54 35 36 pmos W=2.1e-08 L=1.5e-08 NFIN=4 ADEO=1.134e-15 ASEO=5.67e-16 PDEO=2.34e-07 
+    PSEO=1.17e-07 $X=0.0840 $Y=0.5720 
M62 54 51 52 pmos W=2.1e-08 L=1.5e-08 NFIN=4 ADEO=1.134e-15 ASEO=5.67e-16 PDEO=2.34e-07 
+    PSEO=1.17e-07 $X=0.0840 $Y=0.4085 
M63 53 27 28 pmos W=2.1e-08 L=1.5e-08 NFIN=4 ADEO=1.134e-15 ASEO=5.67e-16 PDEO=2.34e-07 
+    PSEO=1.17e-07 $X=0.0840 $Y=0.2450 
M64 53 43 44 pmos W=2.1e-08 L=1.5e-08 NFIN=4 ADEO=1.134e-15 ASEO=5.67e-16 PDEO=2.34e-07 
+    PSEO=1.17e-07 $X=0.0840 $Y=0.0815 
.ends VCELLR4

.subckt and 2 3 4 5 6 
*.CELL_INFO DEVICE_LEVELED 1-nmos
M1 3 2 6 pmos W=2.1e-08 L=1.5e-08 NFIN=4 ADEO=5.67e-16 ASEO=1.134e-15 PDEO=1.17e-07 
+    PSEO=2.34e-07 $X=0.1260 $Y=0.0815 
M2 6 5 2 pmos W=2.1e-08 L=1.5e-08 NFIN=4 ADEO=1.134e-15 ASEO=1.134e-15 PDEO=2.34e-07 
+    PSEO=2.34e-07 $X=0.0840 $Y=0.0815 
M3 2 4 6 pmos W=2.1e-08 L=1.5e-08 NFIN=4 ADEO=1.134e-15 ASEO=5.67e-16 PDEO=2.34e-07 
+    PSEO=1.17e-07 $X=0.0420 $Y=0.0815 
.ends and

.subckt inverter_write 2 3 5 
*.CELL_INFO DEVICE_LEVELED 1-nmos
M1 3 2 5 pmos W=2.1e-08 L=1.5e-08 NFIN=4 ADEO=5.67e-16 ASEO=5.67e-16 PDEO=1.17e-07 
+    PSEO=1.17e-07 $X=0.0555 $Y=0.0775 
.ends inverter_write

.subckt bitline_conditioning 2 3 4 5 6 7 8 9 10 11 12 13 14 15 16 17 18 20 
M1 18 2 20 pmos W=2.1e-08 L=1.5e-08 NFIN=4 ADEO=5.67e-16 ASEO=1.134e-15 PDEO=1.17e-07 
+    PSEO=2.34e-07 $X=1.9320 $Y=0.1047 
M2 20 2 18 pmos W=2.1e-08 L=1.5e-08 NFIN=4 ADEO=1.134e-15 ASEO=1.134e-15 PDEO=2.34e-07 
+    PSEO=2.34e-07 $X=1.8900 $Y=0.1047 
M3 18 2 17 pmos W=2.1e-08 L=1.5e-08 NFIN=4 ADEO=1.134e-15 ASEO=1.134e-15 PDEO=2.34e-07 
+    PSEO=2.34e-07 $X=1.8480 $Y=0.1047 
M4 16 2 20 pmos W=2.1e-08 L=1.5e-08 NFIN=4 ADEO=5.67e-16 ASEO=1.134e-15 PDEO=1.17e-07 
+    PSEO=2.34e-07 $X=1.8060 $Y=0.2218 
M5 17 2 18 pmos W=2.1e-08 L=1.5e-08 NFIN=4 ADEO=1.134e-15 ASEO=5.67e-16 PDEO=2.34e-07 
+    PSEO=1.17e-07 $X=1.8060 $Y=0.1047 
M6 20 2 16 pmos W=2.1e-08 L=1.5e-08 NFIN=4 ADEO=1.134e-15 ASEO=1.134e-15 PDEO=2.34e-07 
+    PSEO=2.34e-07 $X=1.7640 $Y=0.2218 
M7 16 2 15 pmos W=2.1e-08 L=1.5e-08 NFIN=4 ADEO=1.134e-15 ASEO=1.134e-15 PDEO=2.34e-07 
+    PSEO=2.34e-07 $X=1.7220 $Y=0.2218 
M8 20 2 17 pmos W=2.1e-08 L=1.5e-08 NFIN=4 ADEO=5.67e-16 ASEO=1.134e-15 PDEO=1.17e-07 
+    PSEO=2.34e-07 $X=1.7220 $Y=0.1047 
M9 15 2 16 pmos W=2.1e-08 L=1.5e-08 NFIN=4 ADEO=1.134e-15 ASEO=5.67e-16 PDEO=2.34e-07 
+    PSEO=1.17e-07 $X=1.6800 $Y=0.2218 
M10 17 2 20 pmos W=2.1e-08 L=1.5e-08 NFIN=4 ADEO=1.134e-15 ASEO=5.67e-16 PDEO=2.34e-07 
+    PSEO=1.17e-07 $X=1.6800 $Y=0.1047 
M11 20 2 15 pmos W=2.1e-08 L=1.5e-08 NFIN=4 ADEO=5.67e-16 ASEO=1.134e-15 PDEO=1.17e-07 
+    PSEO=2.34e-07 $X=1.5960 $Y=0.2218 
M12 15 2 20 pmos W=2.1e-08 L=1.5e-08 NFIN=4 ADEO=1.134e-15 ASEO=5.67e-16 PDEO=2.34e-07 
+    PSEO=1.17e-07 $X=1.5540 $Y=0.2218 
M13 14 2 20 pmos W=2.1e-08 L=1.5e-08 NFIN=4 ADEO=5.67e-16 ASEO=1.134e-15 PDEO=1.17e-07 
+    PSEO=2.34e-07 $X=1.4280 $Y=0.1047 
M14 20 2 14 pmos W=2.1e-08 L=1.5e-08 NFIN=4 ADEO=1.134e-15 ASEO=1.134e-15 PDEO=2.34e-07 
+    PSEO=2.34e-07 $X=1.3860 $Y=0.1047 
M15 14 2 13 pmos W=2.1e-08 L=1.5e-08 NFIN=4 ADEO=1.134e-15 ASEO=1.134e-15 PDEO=2.34e-07 
+    PSEO=2.34e-07 $X=1.3440 $Y=0.1047 
M16 12 2 20 pmos W=2.1e-08 L=1.5e-08 NFIN=4 ADEO=5.67e-16 ASEO=1.134e-15 PDEO=1.17e-07 
+    PSEO=2.34e-07 $X=1.3020 $Y=0.2218 
M17 13 2 14 pmos W=2.1e-08 L=1.5e-08 NFIN=4 ADEO=1.134e-15 ASEO=5.67e-16 PDEO=2.34e-07 
+    PSEO=1.17e-07 $X=1.3020 $Y=0.1047 
M18 20 2 12 pmos W=2.1e-08 L=1.5e-08 NFIN=4 ADEO=1.134e-15 ASEO=1.134e-15 PDEO=2.34e-07 
+    PSEO=2.34e-07 $X=1.2600 $Y=0.2218 
M19 12 2 11 pmos W=2.1e-08 L=1.5e-08 NFIN=4 ADEO=1.134e-15 ASEO=1.134e-15 PDEO=2.34e-07 
+    PSEO=2.34e-07 $X=1.2180 $Y=0.2218 
M20 20 2 13 pmos W=2.1e-08 L=1.5e-08 NFIN=4 ADEO=5.67e-16 ASEO=1.134e-15 PDEO=1.17e-07 
+    PSEO=2.34e-07 $X=1.2180 $Y=0.1047 
M21 11 2 12 pmos W=2.1e-08 L=1.5e-08 NFIN=4 ADEO=1.134e-15 ASEO=5.67e-16 PDEO=2.34e-07 
+    PSEO=1.17e-07 $X=1.1760 $Y=0.2218 
M22 13 2 20 pmos W=2.1e-08 L=1.5e-08 NFIN=4 ADEO=1.134e-15 ASEO=5.67e-16 PDEO=2.34e-07 
+    PSEO=1.17e-07 $X=1.1760 $Y=0.1047 
M23 20 2 11 pmos W=2.1e-08 L=1.5e-08 NFIN=4 ADEO=5.67e-16 ASEO=1.134e-15 PDEO=1.17e-07 
+    PSEO=2.34e-07 $X=1.0920 $Y=0.2218 
M24 11 2 20 pmos W=2.1e-08 L=1.5e-08 NFIN=4 ADEO=1.134e-15 ASEO=5.67e-16 PDEO=2.34e-07 
+    PSEO=1.17e-07 $X=1.0500 $Y=0.2218 
M25 10 2 20 pmos W=2.1e-08 L=1.5e-08 NFIN=4 ADEO=5.67e-16 ASEO=1.134e-15 PDEO=1.17e-07 
+    PSEO=2.34e-07 $X=0.9240 $Y=0.1047 
M26 20 2 10 pmos W=2.1e-08 L=1.5e-08 NFIN=4 ADEO=1.134e-15 ASEO=1.134e-15 PDEO=2.34e-07 
+    PSEO=2.34e-07 $X=0.8820 $Y=0.1047 
M27 10 2 9 pmos W=2.1e-08 L=1.5e-08 NFIN=4 ADEO=1.134e-15 ASEO=1.134e-15 PDEO=2.34e-07 
+    PSEO=2.34e-07 $X=0.8400 $Y=0.1047 
M28 8 2 20 pmos W=2.1e-08 L=1.5e-08 NFIN=4 ADEO=5.67e-16 ASEO=1.134e-15 PDEO=1.17e-07 
+    PSEO=2.34e-07 $X=0.7980 $Y=0.2218 
M29 9 2 10 pmos W=2.1e-08 L=1.5e-08 NFIN=4 ADEO=1.134e-15 ASEO=5.67e-16 PDEO=2.34e-07 
+    PSEO=1.17e-07 $X=0.7980 $Y=0.1047 
M30 20 2 8 pmos W=2.1e-08 L=1.5e-08 NFIN=4 ADEO=1.134e-15 ASEO=1.134e-15 PDEO=2.34e-07 
+    PSEO=2.34e-07 $X=0.7560 $Y=0.2218 
M31 8 2 7 pmos W=2.1e-08 L=1.5e-08 NFIN=4 ADEO=1.134e-15 ASEO=1.134e-15 PDEO=2.34e-07 
+    PSEO=2.34e-07 $X=0.7140 $Y=0.2218 
M32 20 2 9 pmos W=2.1e-08 L=1.5e-08 NFIN=4 ADEO=5.67e-16 ASEO=1.134e-15 PDEO=1.17e-07 
+    PSEO=2.34e-07 $X=0.7140 $Y=0.1047 
M33 7 2 8 pmos W=2.1e-08 L=1.5e-08 NFIN=4 ADEO=1.134e-15 ASEO=5.67e-16 PDEO=2.34e-07 
+    PSEO=1.17e-07 $X=0.6720 $Y=0.2218 
M34 9 2 20 pmos W=2.1e-08 L=1.5e-08 NFIN=4 ADEO=1.134e-15 ASEO=5.67e-16 PDEO=2.34e-07 
+    PSEO=1.17e-07 $X=0.6720 $Y=0.1047 
M35 20 2 7 pmos W=2.1e-08 L=1.5e-08 NFIN=4 ADEO=5.67e-16 ASEO=1.134e-15 PDEO=1.17e-07 
+    PSEO=2.34e-07 $X=0.5880 $Y=0.2218 
M36 7 2 20 pmos W=2.1e-08 L=1.5e-08 NFIN=4 ADEO=1.134e-15 ASEO=5.67e-16 PDEO=2.34e-07 
+    PSEO=1.17e-07 $X=0.5460 $Y=0.2218 
M37 6 2 20 pmos W=2.1e-08 L=1.5e-08 NFIN=4 ADEO=5.67e-16 ASEO=1.134e-15 PDEO=1.17e-07 
+    PSEO=2.34e-07 $X=0.4200 $Y=0.1047 
M38 20 2 6 pmos W=2.1e-08 L=1.5e-08 NFIN=4 ADEO=1.134e-15 ASEO=1.134e-15 PDEO=2.34e-07 
+    PSEO=2.34e-07 $X=0.3780 $Y=0.1047 
M39 6 2 5 pmos W=2.1e-08 L=1.5e-08 NFIN=4 ADEO=1.134e-15 ASEO=1.134e-15 PDEO=2.34e-07 
+    PSEO=2.34e-07 $X=0.3360 $Y=0.1047 
M40 4 2 20 pmos W=2.1e-08 L=1.5e-08 NFIN=4 ADEO=5.67e-16 ASEO=1.134e-15 PDEO=1.17e-07 
+    PSEO=2.34e-07 $X=0.2940 $Y=0.2218 
M41 5 2 6 pmos W=2.1e-08 L=1.5e-08 NFIN=4 ADEO=1.134e-15 ASEO=5.67e-16 PDEO=2.34e-07 
+    PSEO=1.17e-07 $X=0.2940 $Y=0.1047 
M42 20 2 4 pmos W=2.1e-08 L=1.5e-08 NFIN=4 ADEO=1.134e-15 ASEO=1.134e-15 PDEO=2.34e-07 
+    PSEO=2.34e-07 $X=0.2520 $Y=0.2218 
M43 4 2 3 pmos W=2.1e-08 L=1.5e-08 NFIN=4 ADEO=1.134e-15 ASEO=1.134e-15 PDEO=2.34e-07 
+    PSEO=2.34e-07 $X=0.2100 $Y=0.2218 
M44 20 2 5 pmos W=2.1e-08 L=1.5e-08 NFIN=4 ADEO=5.67e-16 ASEO=1.134e-15 PDEO=1.17e-07 
+    PSEO=2.34e-07 $X=0.2100 $Y=0.1047 
M45 3 2 4 pmos W=2.1e-08 L=1.5e-08 NFIN=4 ADEO=1.134e-15 ASEO=5.67e-16 PDEO=2.34e-07 
+    PSEO=1.17e-07 $X=0.1680 $Y=0.2218 
M46 5 2 20 pmos W=2.1e-08 L=1.5e-08 NFIN=4 ADEO=1.134e-15 ASEO=5.67e-16 PDEO=2.34e-07 
+    PSEO=1.17e-07 $X=0.1680 $Y=0.1047 
M47 20 2 3 pmos W=2.1e-08 L=1.5e-08 NFIN=4 ADEO=5.67e-16 ASEO=1.134e-15 PDEO=1.17e-07 
+    PSEO=2.34e-07 $X=0.0840 $Y=0.2218 
M48 3 2 20 pmos W=2.1e-08 L=1.5e-08 NFIN=4 ADEO=1.134e-15 ASEO=5.67e-16 PDEO=2.34e-07 
+    PSEO=1.17e-07 $X=0.0420 $Y=0.2218 
.ends bitline_conditioning

.subckt VCELLR3 2 3 5 6 7 9 11 13 15 16 17 
M1 3 13 16 nmos W=2.1e-08 L=1.5e-08 NFIN=2 ADEO=2.835e-16 ASEO=2.835e-16 PDEO=5.85e-08 
+    PSEO=5.85e-08 $X=0.3075 $Y=0.3810 
M2 3 11 16 nmos W=2.1e-08 L=1.5e-08 NFIN=2 ADEO=2.835e-16 ASEO=2.835e-16 PDEO=5.85e-08 
+    PSEO=5.85e-08 $X=0.2235 $Y=0.3810 
M3 3 9 16 nmos W=2.1e-08 L=1.5e-08 NFIN=2 ADEO=2.835e-16 ASEO=2.835e-16 PDEO=5.85e-08 
+    PSEO=5.85e-08 $X=0.1395 $Y=0.3810 
M4 3 6 16 nmos W=2.1e-08 L=1.5e-08 NFIN=2 ADEO=2.835e-16 ASEO=2.835e-16 PDEO=5.85e-08 
+    PSEO=5.85e-08 $X=0.0555 $Y=0.3810 
M5 3 7 17 pmos W=2.1e-08 L=1.5e-08 NFIN=4 ADEO=5.67e-16 ASEO=5.67e-16 PDEO=1.17e-07 
+    PSEO=1.17e-07 $X=0.0555 $Y=0.5580 
M6 2 5 15 pmos W=2.1e-08 L=1.5e-08 NFIN=4 ADEO=5.67e-16 ASEO=5.67e-16 PDEO=1.17e-07 
+    PSEO=1.17e-07 $X=0.0555 $Y=0.2310 
.ends VCELLR3

.subckt buffer_array 2 3 4 5 6 7 8 9 10 12 13 14 15 
*.CELL_INFO DEVICE_LEVELED 1-pmos
M1 10 2 12 nmos W=2.1e-08 L=1.5e-08 NFIN=2 ADEO=2.835e-16 ASEO=5.67e-16 PDEO=5.85e-08 
+    PSEO=1.17e-07 $X=1.6935 $Y=0.0990 
M2 12 2 10 nmos W=2.1e-08 L=1.5e-08 NFIN=2 ADEO=5.67e-16 ASEO=2.835e-16 PDEO=1.17e-07 
+    PSEO=5.85e-08 $X=1.6515 $Y=0.0990 
M3 10 3 2 nmos W=2.1e-08 L=1.5e-08 NFIN=2 ADEO=2.835e-16 ASEO=5.67e-16 PDEO=5.85e-08 
+    PSEO=1.17e-07 $X=1.5675 $Y=0.0990 
M4 2 3 10 nmos W=2.1e-08 L=1.5e-08 NFIN=2 ADEO=5.67e-16 ASEO=2.835e-16 PDEO=1.17e-07 
+    PSEO=5.85e-08 $X=1.5255 $Y=0.0990 
M5 10 4 13 nmos W=2.1e-08 L=1.5e-08 NFIN=2 ADEO=2.835e-16 ASEO=5.67e-16 PDEO=5.85e-08 
+    PSEO=1.17e-07 $X=1.1895 $Y=0.0990 
M6 13 4 10 nmos W=2.1e-08 L=1.5e-08 NFIN=2 ADEO=5.67e-16 ASEO=2.835e-16 PDEO=1.17e-07 
+    PSEO=5.85e-08 $X=1.1475 $Y=0.0990 
M7 10 5 4 nmos W=2.1e-08 L=1.5e-08 NFIN=2 ADEO=2.835e-16 ASEO=5.67e-16 PDEO=5.85e-08 
+    PSEO=1.17e-07 $X=1.0635 $Y=0.0990 
M8 4 5 10 nmos W=2.1e-08 L=1.5e-08 NFIN=2 ADEO=5.67e-16 ASEO=2.835e-16 PDEO=1.17e-07 
+    PSEO=5.85e-08 $X=1.0215 $Y=0.0990 
M9 10 6 14 nmos W=2.1e-08 L=1.5e-08 NFIN=2 ADEO=2.835e-16 ASEO=5.67e-16 PDEO=5.85e-08 
+    PSEO=1.17e-07 $X=0.6855 $Y=0.0990 
M10 14 6 10 nmos W=2.1e-08 L=1.5e-08 NFIN=2 ADEO=5.67e-16 ASEO=2.835e-16 PDEO=1.17e-07 
+    PSEO=5.85e-08 $X=0.6435 $Y=0.0990 
M11 10 7 6 nmos W=2.1e-08 L=1.5e-08 NFIN=2 ADEO=2.835e-16 ASEO=5.67e-16 PDEO=5.85e-08 
+    PSEO=1.17e-07 $X=0.5595 $Y=0.0990 
M12 6 7 10 nmos W=2.1e-08 L=1.5e-08 NFIN=2 ADEO=5.67e-16 ASEO=2.835e-16 PDEO=1.17e-07 
+    PSEO=5.85e-08 $X=0.5175 $Y=0.0990 
M13 10 8 15 nmos W=2.1e-08 L=1.5e-08 NFIN=2 ADEO=2.835e-16 ASEO=5.67e-16 PDEO=5.85e-08 
+    PSEO=1.17e-07 $X=0.2235 $Y=0.0990 
M14 15 8 10 nmos W=2.1e-08 L=1.5e-08 NFIN=2 ADEO=5.67e-16 ASEO=2.835e-16 PDEO=1.17e-07 
+    PSEO=5.85e-08 $X=0.1815 $Y=0.0990 
M15 10 9 8 nmos W=2.1e-08 L=1.5e-08 NFIN=2 ADEO=2.835e-16 ASEO=5.67e-16 PDEO=5.85e-08 
+    PSEO=1.17e-07 $X=0.0975 $Y=0.0990 
M16 8 9 10 nmos W=2.1e-08 L=1.5e-08 NFIN=2 ADEO=5.67e-16 ASEO=2.835e-16 PDEO=1.17e-07 
+    PSEO=5.85e-08 $X=0.0555 $Y=0.0990 
.ends buffer_array

.subckt write_buffer_cell 4 6 7 8 11 12 
M1 8 3 11 nmos W=2.1e-08 L=1.5e-08 NFIN=2 ADEO=2.835e-16 ASEO=2.835e-16 PDEO=5.85e-08 
+    PSEO=5.85e-08 $X=0.4620 $Y=0.2160 
M2 3 9 11 nmos W=2.1e-08 L=1.5e-08 NFIN=2 ADEO=2.835e-16 ASEO=5.67e-16 PDEO=5.85e-08 
+    PSEO=1.17e-07 $X=0.4620 $Y=0.0975 
M3 11 6 16 nmos W=2.1e-08 L=1.5e-08 NFIN=2 ADEO=5.67e-16 ASEO=5.67e-16 PDEO=1.17e-07 
+    PSEO=1.17e-07 $X=0.4200 $Y=0.0975 
M4 16 4 9 nmos W=2.1e-08 L=1.5e-08 NFIN=2 ADEO=5.67e-16 ASEO=2.835e-16 PDEO=1.17e-07 
+    PSEO=5.85e-08 $X=0.3780 $Y=0.0975 
M5 11 4 5 nmos W=2.1e-08 L=1.5e-08 NFIN=2 ADEO=2.835e-16 ASEO=2.835e-16 PDEO=5.85e-08 
+    PSEO=5.85e-08 $X=0.2940 $Y=0.0975 
M6 10 5 17 nmos W=2.1e-08 L=1.5e-08 NFIN=2 ADEO=2.835e-16 ASEO=5.67e-16 PDEO=5.85e-08 
+    PSEO=1.17e-07 $X=0.2100 $Y=0.0975 
M7 17 6 11 nmos W=2.1e-08 L=1.5e-08 NFIN=2 ADEO=5.67e-16 ASEO=5.67e-16 PDEO=1.17e-07 
+    PSEO=1.17e-07 $X=0.1680 $Y=0.0975 
M8 11 2 7 nmos W=2.1e-08 L=1.5e-08 NFIN=2 ADEO=2.835e-16 ASEO=2.835e-16 PDEO=5.85e-08 
+    PSEO=5.85e-08 $X=0.1260 $Y=0.2160 
M9 11 10 2 nmos W=2.1e-08 L=1.5e-08 NFIN=2 ADEO=5.67e-16 ASEO=2.835e-16 PDEO=1.17e-07 
+    PSEO=5.85e-08 $X=0.1260 $Y=0.0975 
X73A2B172403 4 5 12 inverter_write $T=0.3495 0.1750 0 180 
X73A2B172414 9 3 4 6 12 and_v1 $T=0.3360 0.1790 1 0 
X73A2B172415 10 2 5 6 12 and $T=0.2520 0.1790 0 180 
.ends write_buffer_cell

.subckt sram_array_16r_8c 2 3 4 5 6 7 8 9 10 11 12 13 14 15 16 17 18 19 20 22 23 
+    24 25 26 27 28 29 31 32 33 130 131 132 133 134 136 137 138 139 140 141 142 143 
+    144 145 147 148 149 150 151 152 153 154 155 156 157 158 159 160 161 162 163 
+    164 165 166 167 168 169 170 171 172 173 174 175 176 177 178 
*.CELL_INFO DEVICE_LEVELED 1-nmos
M1 17 33 122 nmos W=2.1e-08 L=1.5e-08 NFIN=2 ADEO=2.835e-16 ASEO=5.67e-16 PDEO=5.85e-08 
+    PSEO=1.17e-07 $X=1.9320 $Y=1.9985 
M2 17 26 114 nmos W=2.1e-08 L=1.5e-08 NFIN=2 ADEO=2.835e-16 ASEO=5.67e-16 PDEO=5.85e-08 
+    PSEO=1.17e-07 $X=1.9320 $Y=1.9250 
M3 17 29 106 nmos W=2.1e-08 L=1.5e-08 NFIN=2 ADEO=2.835e-16 ASEO=5.67e-16 PDEO=5.85e-08 
+    PSEO=1.17e-07 $X=1.9320 $Y=1.3445 
M4 17 22 98 nmos W=2.1e-08 L=1.5e-08 NFIN=2 ADEO=2.835e-16 ASEO=5.67e-16 PDEO=5.85e-08 
+    PSEO=1.17e-07 $X=1.9320 $Y=1.2710 
M5 122 123 133 nmos W=2.1e-08 L=1.5e-08 NFIN=2 ADEO=5.67e-16 ASEO=5.67e-16 PDEO=1.17e-07 
+    PSEO=1.17e-07 $X=1.8900 $Y=2.0435 
M6 114 115 133 nmos W=2.1e-08 L=1.5e-08 NFIN=2 ADEO=5.67e-16 ASEO=5.67e-16 PDEO=1.17e-07 
+    PSEO=1.17e-07 $X=1.8900 $Y=1.8800 
M7 106 107 140 nmos W=2.1e-08 L=1.5e-08 NFIN=2 ADEO=5.67e-16 ASEO=5.67e-16 PDEO=1.17e-07 
+    PSEO=1.17e-07 $X=1.8900 $Y=1.3895 
M8 98 99 140 nmos W=2.1e-08 L=1.5e-08 NFIN=2 ADEO=5.67e-16 ASEO=5.67e-16 PDEO=1.17e-07 
+    PSEO=1.17e-07 $X=1.8900 $Y=1.2260 
M9 133 122 123 nmos W=2.1e-08 L=1.5e-08 NFIN=2 ADEO=5.67e-16 ASEO=5.67e-16 PDEO=1.17e-07 
+    PSEO=1.17e-07 $X=1.8480 $Y=2.0435 
M10 133 114 115 nmos W=2.1e-08 L=1.5e-08 NFIN=2 ADEO=5.67e-16 ASEO=5.67e-16 PDEO=1.17e-07 
+    PSEO=1.17e-07 $X=1.8480 $Y=1.8800 
M11 140 106 107 nmos W=2.1e-08 L=1.5e-08 NFIN=2 ADEO=5.67e-16 ASEO=5.67e-16 PDEO=1.17e-07 
+    PSEO=1.17e-07 $X=1.8480 $Y=1.3895 
M12 140 98 99 nmos W=2.1e-08 L=1.5e-08 NFIN=2 ADEO=5.67e-16 ASEO=5.67e-16 PDEO=1.17e-07 
+    PSEO=1.17e-07 $X=1.8480 $Y=1.2260 
M13 123 33 16 nmos W=2.1e-08 L=1.5e-08 NFIN=2 ADEO=5.67e-16 ASEO=2.835e-16 PDEO=1.17e-07 
+    PSEO=5.85e-08 $X=1.8060 $Y=1.9985 
M14 115 26 16 nmos W=2.1e-08 L=1.5e-08 NFIN=2 ADEO=5.67e-16 ASEO=2.835e-16 PDEO=1.17e-07 
+    PSEO=5.85e-08 $X=1.8060 $Y=1.9250 
M15 107 29 16 nmos W=2.1e-08 L=1.5e-08 NFIN=2 ADEO=5.67e-16 ASEO=2.835e-16 PDEO=1.17e-07 
+    PSEO=5.85e-08 $X=1.8060 $Y=1.3445 
M16 99 22 16 nmos W=2.1e-08 L=1.5e-08 NFIN=2 ADEO=5.67e-16 ASEO=2.835e-16 PDEO=1.17e-07 
+    PSEO=5.85e-08 $X=1.8060 $Y=1.2710 
M17 15 33 124 nmos W=2.1e-08 L=1.5e-08 NFIN=2 ADEO=2.835e-16 ASEO=5.67e-16 PDEO=5.85e-08 
+    PSEO=1.17e-07 $X=1.6800 $Y=1.9985 
M18 15 26 116 nmos W=2.1e-08 L=1.5e-08 NFIN=2 ADEO=2.835e-16 ASEO=5.67e-16 PDEO=5.85e-08 
+    PSEO=1.17e-07 $X=1.6800 $Y=1.9250 
M19 15 29 108 nmos W=2.1e-08 L=1.5e-08 NFIN=2 ADEO=2.835e-16 ASEO=5.67e-16 PDEO=5.85e-08 
+    PSEO=1.17e-07 $X=1.6800 $Y=1.3445 
M20 15 22 100 nmos W=2.1e-08 L=1.5e-08 NFIN=2 ADEO=2.835e-16 ASEO=5.67e-16 PDEO=5.85e-08 
+    PSEO=1.17e-07 $X=1.6800 $Y=1.2710 
M21 124 125 133 nmos W=2.1e-08 L=1.5e-08 NFIN=2 ADEO=5.67e-16 ASEO=5.67e-16 PDEO=1.17e-07 
+    PSEO=1.17e-07 $X=1.6380 $Y=2.0435 
M22 116 117 133 nmos W=2.1e-08 L=1.5e-08 NFIN=2 ADEO=5.67e-16 ASEO=5.67e-16 PDEO=1.17e-07 
+    PSEO=1.17e-07 $X=1.6380 $Y=1.8800 
M23 108 109 140 nmos W=2.1e-08 L=1.5e-08 NFIN=2 ADEO=5.67e-16 ASEO=5.67e-16 PDEO=1.17e-07 
+    PSEO=1.17e-07 $X=1.6380 $Y=1.3895 
M24 100 101 140 nmos W=2.1e-08 L=1.5e-08 NFIN=2 ADEO=5.67e-16 ASEO=5.67e-16 PDEO=1.17e-07 
+    PSEO=1.17e-07 $X=1.6380 $Y=1.2260 
M25 133 124 125 nmos W=2.1e-08 L=1.5e-08 NFIN=2 ADEO=5.67e-16 ASEO=5.67e-16 PDEO=1.17e-07 
+    PSEO=1.17e-07 $X=1.5960 $Y=2.0435 
M26 133 116 117 nmos W=2.1e-08 L=1.5e-08 NFIN=2 ADEO=5.67e-16 ASEO=5.67e-16 PDEO=1.17e-07 
+    PSEO=1.17e-07 $X=1.5960 $Y=1.8800 
M27 140 108 109 nmos W=2.1e-08 L=1.5e-08 NFIN=2 ADEO=5.67e-16 ASEO=5.67e-16 PDEO=1.17e-07 
+    PSEO=1.17e-07 $X=1.5960 $Y=1.3895 
M28 140 100 101 nmos W=2.1e-08 L=1.5e-08 NFIN=2 ADEO=5.67e-16 ASEO=5.67e-16 PDEO=1.17e-07 
+    PSEO=1.17e-07 $X=1.5960 $Y=1.2260 
M29 125 33 14 nmos W=2.1e-08 L=1.5e-08 NFIN=2 ADEO=5.67e-16 ASEO=2.835e-16 PDEO=1.17e-07 
+    PSEO=5.85e-08 $X=1.5540 $Y=1.9985 
M30 117 26 14 nmos W=2.1e-08 L=1.5e-08 NFIN=2 ADEO=5.67e-16 ASEO=2.835e-16 PDEO=1.17e-07 
+    PSEO=5.85e-08 $X=1.5540 $Y=1.9250 
M31 109 29 14 nmos W=2.1e-08 L=1.5e-08 NFIN=2 ADEO=5.67e-16 ASEO=2.835e-16 PDEO=1.17e-07 
+    PSEO=5.85e-08 $X=1.5540 $Y=1.3445 
M32 101 22 14 nmos W=2.1e-08 L=1.5e-08 NFIN=2 ADEO=5.67e-16 ASEO=2.835e-16 PDEO=1.17e-07 
+    PSEO=5.85e-08 $X=1.5540 $Y=1.2710 
M33 13 33 126 nmos W=2.1e-08 L=1.5e-08 NFIN=2 ADEO=2.835e-16 ASEO=5.67e-16 PDEO=5.85e-08 
+    PSEO=1.17e-07 $X=1.4280 $Y=1.9985 
M34 13 26 118 nmos W=2.1e-08 L=1.5e-08 NFIN=2 ADEO=2.835e-16 ASEO=5.67e-16 PDEO=5.85e-08 
+    PSEO=1.17e-07 $X=1.4280 $Y=1.9250 
M35 13 29 110 nmos W=2.1e-08 L=1.5e-08 NFIN=2 ADEO=2.835e-16 ASEO=5.67e-16 PDEO=5.85e-08 
+    PSEO=1.17e-07 $X=1.4280 $Y=1.3445 
M36 13 22 102 nmos W=2.1e-08 L=1.5e-08 NFIN=2 ADEO=2.835e-16 ASEO=5.67e-16 PDEO=5.85e-08 
+    PSEO=1.17e-07 $X=1.4280 $Y=1.2710 
M37 126 127 133 nmos W=2.1e-08 L=1.5e-08 NFIN=2 ADEO=5.67e-16 ASEO=5.67e-16 PDEO=1.17e-07 
+    PSEO=1.17e-07 $X=1.3860 $Y=2.0435 
M38 118 119 133 nmos W=2.1e-08 L=1.5e-08 NFIN=2 ADEO=5.67e-16 ASEO=5.67e-16 PDEO=1.17e-07 
+    PSEO=1.17e-07 $X=1.3860 $Y=1.8800 
M39 110 111 140 nmos W=2.1e-08 L=1.5e-08 NFIN=2 ADEO=5.67e-16 ASEO=5.67e-16 PDEO=1.17e-07 
+    PSEO=1.17e-07 $X=1.3860 $Y=1.3895 
M40 102 103 140 nmos W=2.1e-08 L=1.5e-08 NFIN=2 ADEO=5.67e-16 ASEO=5.67e-16 PDEO=1.17e-07 
+    PSEO=1.17e-07 $X=1.3860 $Y=1.2260 
M41 133 126 127 nmos W=2.1e-08 L=1.5e-08 NFIN=2 ADEO=5.67e-16 ASEO=5.67e-16 PDEO=1.17e-07 
+    PSEO=1.17e-07 $X=1.3440 $Y=2.0435 
M42 133 118 119 nmos W=2.1e-08 L=1.5e-08 NFIN=2 ADEO=5.67e-16 ASEO=5.67e-16 PDEO=1.17e-07 
+    PSEO=1.17e-07 $X=1.3440 $Y=1.8800 
M43 140 110 111 nmos W=2.1e-08 L=1.5e-08 NFIN=2 ADEO=5.67e-16 ASEO=5.67e-16 PDEO=1.17e-07 
+    PSEO=1.17e-07 $X=1.3440 $Y=1.3895 
M44 140 102 103 nmos W=2.1e-08 L=1.5e-08 NFIN=2 ADEO=5.67e-16 ASEO=5.67e-16 PDEO=1.17e-07 
+    PSEO=1.17e-07 $X=1.3440 $Y=1.2260 
M45 127 33 12 nmos W=2.1e-08 L=1.5e-08 NFIN=2 ADEO=5.67e-16 ASEO=2.835e-16 PDEO=1.17e-07 
+    PSEO=5.85e-08 $X=1.3020 $Y=1.9985 
M46 119 26 12 nmos W=2.1e-08 L=1.5e-08 NFIN=2 ADEO=5.67e-16 ASEO=2.835e-16 PDEO=1.17e-07 
+    PSEO=5.85e-08 $X=1.3020 $Y=1.9250 
M47 111 29 12 nmos W=2.1e-08 L=1.5e-08 NFIN=2 ADEO=5.67e-16 ASEO=2.835e-16 PDEO=1.17e-07 
+    PSEO=5.85e-08 $X=1.3020 $Y=1.3445 
M48 103 22 12 nmos W=2.1e-08 L=1.5e-08 NFIN=2 ADEO=5.67e-16 ASEO=2.835e-16 PDEO=1.17e-07 
+    PSEO=5.85e-08 $X=1.3020 $Y=1.2710 
M49 11 33 128 nmos W=2.1e-08 L=1.5e-08 NFIN=2 ADEO=2.835e-16 ASEO=5.67e-16 PDEO=5.85e-08 
+    PSEO=1.17e-07 $X=1.1760 $Y=1.9985 
M50 11 26 120 nmos W=2.1e-08 L=1.5e-08 NFIN=2 ADEO=2.835e-16 ASEO=5.67e-16 PDEO=5.85e-08 
+    PSEO=1.17e-07 $X=1.1760 $Y=1.9250 
M51 11 29 112 nmos W=2.1e-08 L=1.5e-08 NFIN=2 ADEO=2.835e-16 ASEO=5.67e-16 PDEO=5.85e-08 
+    PSEO=1.17e-07 $X=1.1760 $Y=1.3445 
M52 11 22 104 nmos W=2.1e-08 L=1.5e-08 NFIN=2 ADEO=2.835e-16 ASEO=5.67e-16 PDEO=5.85e-08 
+    PSEO=1.17e-07 $X=1.1760 $Y=1.2710 
M53 128 129 133 nmos W=2.1e-08 L=1.5e-08 NFIN=2 ADEO=5.67e-16 ASEO=5.67e-16 PDEO=1.17e-07 
+    PSEO=1.17e-07 $X=1.1340 $Y=2.0435 
M54 120 121 133 nmos W=2.1e-08 L=1.5e-08 NFIN=2 ADEO=5.67e-16 ASEO=5.67e-16 PDEO=1.17e-07 
+    PSEO=1.17e-07 $X=1.1340 $Y=1.8800 
M55 112 113 140 nmos W=2.1e-08 L=1.5e-08 NFIN=2 ADEO=5.67e-16 ASEO=5.67e-16 PDEO=1.17e-07 
+    PSEO=1.17e-07 $X=1.1340 $Y=1.3895 
M56 104 105 140 nmos W=2.1e-08 L=1.5e-08 NFIN=2 ADEO=5.67e-16 ASEO=5.67e-16 PDEO=1.17e-07 
+    PSEO=1.17e-07 $X=1.1340 $Y=1.2260 
M57 133 128 129 nmos W=2.1e-08 L=1.5e-08 NFIN=2 ADEO=5.67e-16 ASEO=5.67e-16 PDEO=1.17e-07 
+    PSEO=1.17e-07 $X=1.0920 $Y=2.0435 
M58 133 120 121 nmos W=2.1e-08 L=1.5e-08 NFIN=2 ADEO=5.67e-16 ASEO=5.67e-16 PDEO=1.17e-07 
+    PSEO=1.17e-07 $X=1.0920 $Y=1.8800 
M59 140 112 113 nmos W=2.1e-08 L=1.5e-08 NFIN=2 ADEO=5.67e-16 ASEO=5.67e-16 PDEO=1.17e-07 
+    PSEO=1.17e-07 $X=1.0920 $Y=1.3895 
M60 140 104 105 nmos W=2.1e-08 L=1.5e-08 NFIN=2 ADEO=5.67e-16 ASEO=5.67e-16 PDEO=1.17e-07 
+    PSEO=1.17e-07 $X=1.0920 $Y=1.2260 
M61 129 33 10 nmos W=2.1e-08 L=1.5e-08 NFIN=2 ADEO=5.67e-16 ASEO=2.835e-16 PDEO=1.17e-07 
+    PSEO=5.85e-08 $X=1.0500 $Y=1.9985 
M62 121 26 10 nmos W=2.1e-08 L=1.5e-08 NFIN=2 ADEO=5.67e-16 ASEO=2.835e-16 PDEO=1.17e-07 
+    PSEO=5.85e-08 $X=1.0500 $Y=1.9250 
M63 113 29 10 nmos W=2.1e-08 L=1.5e-08 NFIN=2 ADEO=5.67e-16 ASEO=2.835e-16 PDEO=1.17e-07 
+    PSEO=5.85e-08 $X=1.0500 $Y=1.3445 
M64 105 22 10 nmos W=2.1e-08 L=1.5e-08 NFIN=2 ADEO=5.67e-16 ASEO=2.835e-16 PDEO=1.17e-07 
+    PSEO=5.85e-08 $X=1.0500 $Y=1.2710 
M65 9 33 74 nmos W=2.1e-08 L=1.5e-08 NFIN=2 ADEO=2.835e-16 ASEO=5.67e-16 PDEO=5.85e-08 
+    PSEO=1.17e-07 $X=0.9240 $Y=1.9985 
M66 9 26 66 nmos W=2.1e-08 L=1.5e-08 NFIN=2 ADEO=2.835e-16 ASEO=5.67e-16 PDEO=5.85e-08 
+    PSEO=1.17e-07 $X=0.9240 $Y=1.9250 
M67 9 29 58 nmos W=2.1e-08 L=1.5e-08 NFIN=2 ADEO=2.835e-16 ASEO=5.67e-16 PDEO=5.85e-08 
+    PSEO=1.17e-07 $X=0.9240 $Y=1.3445 
M68 9 22 50 nmos W=2.1e-08 L=1.5e-08 NFIN=2 ADEO=2.835e-16 ASEO=5.67e-16 PDEO=5.85e-08 
+    PSEO=1.17e-07 $X=0.9240 $Y=1.2710 
M69 74 75 133 nmos W=2.1e-08 L=1.5e-08 NFIN=2 ADEO=5.67e-16 ASEO=5.67e-16 PDEO=1.17e-07 
+    PSEO=1.17e-07 $X=0.8820 $Y=2.0435 
M70 66 67 133 nmos W=2.1e-08 L=1.5e-08 NFIN=2 ADEO=5.67e-16 ASEO=5.67e-16 PDEO=1.17e-07 
+    PSEO=1.17e-07 $X=0.8820 $Y=1.8800 
M71 58 59 140 nmos W=2.1e-08 L=1.5e-08 NFIN=2 ADEO=5.67e-16 ASEO=5.67e-16 PDEO=1.17e-07 
+    PSEO=1.17e-07 $X=0.8820 $Y=1.3895 
M72 50 51 140 nmos W=2.1e-08 L=1.5e-08 NFIN=2 ADEO=5.67e-16 ASEO=5.67e-16 PDEO=1.17e-07 
+    PSEO=1.17e-07 $X=0.8820 $Y=1.2260 
M73 133 74 75 nmos W=2.1e-08 L=1.5e-08 NFIN=2 ADEO=5.67e-16 ASEO=5.67e-16 PDEO=1.17e-07 
+    PSEO=1.17e-07 $X=0.8400 $Y=2.0435 
M74 133 66 67 nmos W=2.1e-08 L=1.5e-08 NFIN=2 ADEO=5.67e-16 ASEO=5.67e-16 PDEO=1.17e-07 