********************************************************************************
* Library          : project_backup
* Cell             : top_level
* View             : starrc
* View Search List : starrc hspice hspiceD schematic spice veriloga
* View Stop List   : hspice hspiceD
********************************************************************************
.subckt top_level a<0> a<1> a<2> a<3> a<4> clk d<0> d<1> d<2> d<3> q<0> q<1>
+ q<2> q<3> wenb
mi11|m124 net266 a<0> gnd! nfet nfin=2 w=0.021u l=0.015u adeo=2.835e-16 aseo=2.835e-16
+  pdeo=5.85e-08 pseo=5.85e-08
mi11|m181 net266 i11|net698 gnd! nfet nfin=2 w=0.021u l=0.015u adeo=2.835e-16
+ aseo=2.835e-16 pdeo=5.85e-08 pseo=5.85e-08
mi11|m167 net266 i11|net699 gnd! nfet nfin=2 w=0.021u l=0.015u adeo=2.835e-16
+ aseo=2.835e-16 pdeo=5.85e-08 pseo=5.85e-08
mi11|m153 net266 i11|net700 gnd! nfet nfin=2 w=0.021u l=0.015u adeo=2.835e-16
+ aseo=2.835e-16 pdeo=5.85e-08 pseo=5.85e-08
mi11|m126 net282 a<0> gnd! nfet nfin=2 w=0.021u l=0.015u adeo=2.835e-16 aseo=2.835e-16
+  pdeo=5.85e-08 pseo=5.85e-08
mi11|m183 net282 i11|net698 gnd! nfet nfin=2 w=0.021u l=0.015u adeo=2.835e-16
+ aseo=2.835e-16 pdeo=5.85e-08 pseo=5.85e-08
mi11|m100 net282 a<2> gnd! nfet nfin=2 w=0.021u l=0.015u adeo=2.835e-16 aseo=2.835e-16
+  pdeo=5.85e-08 pseo=5.85e-08
mi11|m157 net282 i11|net700 gnd! nfet nfin=2 w=0.021u l=0.015u adeo=2.835e-16
+ aseo=2.835e-16 pdeo=5.85e-08 pseo=5.85e-08
mi11|m128 net286 a<0> gnd! nfet nfin=2 w=0.021u l=0.015u adeo=2.835e-16 aseo=2.835e-16
+  pdeo=5.85e-08 pseo=5.85e-08
mi11|m185 net286 i11|net698 gnd! nfet nfin=2 w=0.021u l=0.015u adeo=2.835e-16
+ aseo=2.835e-16 pdeo=5.85e-08 pseo=5.85e-08
mi11|m171 net286 i11|net699 gnd! nfet nfin=2 w=0.021u l=0.015u adeo=2.835e-16
+ aseo=2.835e-16 pdeo=5.85e-08 pseo=5.85e-08
mi11|m88 net286 a<3> gnd! nfet nfin=2 w=0.021u l=0.015u adeo=2.835e-16 aseo=2.835e-16
+  pdeo=5.85e-08 pseo=5.85e-08
mi11|m130 net290 a<0> gnd! nfet nfin=2 w=0.021u l=0.015u adeo=2.835e-16 aseo=2.835e-16
+  pdeo=5.85e-08 pseo=5.85e-08
mi11|m187 net290 i11|net698 gnd! nfet nfin=2 w=0.021u l=0.015u adeo=2.835e-16
+ aseo=2.835e-16 pdeo=5.85e-08 pseo=5.85e-08
mi11|m105 net290 a<2> gnd! nfet nfin=2 w=0.021u l=0.015u adeo=2.835e-16 aseo=2.835e-16
+  pdeo=5.85e-08 pseo=5.85e-08
mi11|m92 net290 a<3> gnd! nfet nfin=2 w=0.021u l=0.015u adeo=2.835e-16 aseo=2.835e-16
+  pdeo=5.85e-08 pseo=5.85e-08
mi11|m195 net265 i11|net697 gnd! nfet nfin=2 w=0.021u l=0.015u adeo=2.835e-16
+ aseo=2.835e-16 pdeo=5.85e-08 pseo=5.85e-08
mi11|m180 net265 i11|net698 gnd! nfet nfin=2 w=0.021u l=0.015u adeo=2.835e-16
+ aseo=2.835e-16 pdeo=5.85e-08 pseo=5.85e-08
mi11|m166 net265 i11|net699 gnd! nfet nfin=2 w=0.021u l=0.015u adeo=2.835e-16
+ aseo=2.835e-16 pdeo=5.85e-08 pseo=5.85e-08
mi11|m152 net265 i11|net700 gnd! nfet nfin=2 w=0.021u l=0.015u adeo=2.835e-16
+ aseo=2.835e-16 pdeo=5.85e-08 pseo=5.85e-08
mi11|m193 net281 i11|net697 gnd! nfet nfin=2 w=0.021u l=0.015u adeo=2.835e-16
+ aseo=2.835e-16 pdeo=5.85e-08 pseo=5.85e-08
mi11|m182 net281 i11|net698 gnd! nfet nfin=2 w=0.021u l=0.015u adeo=2.835e-16
+ aseo=2.835e-16 pdeo=5.85e-08 pseo=5.85e-08
mi11|m99 net281 a<2> gnd! nfet nfin=2 w=0.021u l=0.015u adeo=2.835e-16 aseo=2.835e-16
+  pdeo=5.85e-08 pseo=5.85e-08
mi11|m156 net281 i11|net700 gnd! nfet nfin=2 w=0.021u l=0.015u adeo=2.835e-16
+ aseo=2.835e-16 pdeo=5.85e-08 pseo=5.85e-08
mi11|m191 net285 i11|net697 gnd! nfet nfin=2 w=0.021u l=0.015u adeo=2.835e-16
+ aseo=2.835e-16 pdeo=5.85e-08 pseo=5.85e-08
mi11|m184 net285 i11|net698 gnd! nfet nfin=2 w=0.021u l=0.015u adeo=2.835e-16
+ aseo=2.835e-16 pdeo=5.85e-08 pseo=5.85e-08
mi11|m170 net285 i11|net699 gnd! nfet nfin=2 w=0.021u l=0.015u adeo=2.835e-16
+ aseo=2.835e-16 pdeo=5.85e-08 pseo=5.85e-08
mi11|m87 net285 a<3> gnd! nfet nfin=2 w=0.021u l=0.015u adeo=2.835e-16 aseo=2.835e-16
+  pdeo=5.85e-08 pseo=5.85e-08
mi11|m189 net289 i11|net697 gnd! nfet nfin=2 w=0.021u l=0.015u adeo=2.835e-16
+ aseo=2.835e-16 pdeo=5.85e-08 pseo=5.85e-08
mi11|m186 net289 i11|net698 gnd! nfet nfin=2 w=0.021u l=0.015u adeo=2.835e-16
+ aseo=2.835e-16 pdeo=5.85e-08 pseo=5.85e-08
mi11|m106 net289 a<2> gnd! nfet nfin=2 w=0.021u l=0.015u adeo=2.835e-16 aseo=2.835e-16
+  pdeo=5.85e-08 pseo=5.85e-08
mi11|m91 net289 a<3> gnd! nfet nfin=2 w=0.021u l=0.015u adeo=2.835e-16 aseo=2.835e-16
+  pdeo=5.85e-08 pseo=5.85e-08
mi11|i234|m0@2 gnd! a<2> i11|net699 nfet nfin=2 w=0.021u l=0.015u adeo=2.835e-16
+  aseo=5.67e-16 pdeo=5.85e-08 pseo=1.17e-07
mi11|m173 net288 i11|net699 gnd! nfet nfin=2 w=0.021u l=0.015u adeo=2.835e-16
+ aseo=2.835e-16 pdeo=5.85e-08 pseo=5.85e-08
mi11|m102 net284 a<2> gnd! nfet nfin=2 w=0.021u l=0.015u adeo=2.835e-16 aseo=2.835e-16
+  pdeo=5.85e-08 pseo=5.85e-08
mi11|m169 net268 i11|net699 gnd! nfet nfin=2 w=0.021u l=0.015u adeo=2.835e-16
+ aseo=2.835e-16 pdeo=5.85e-08 pseo=5.85e-08
mi11|i235|m0 i11|net700 a<3> gnd! nfet nfin=2 w=0.021u l=0.015u adeo=5.67e-16
+ aseo=2.835e-16 pdeo=1.17e-07 pseo=5.85e-08
mi11|m90 net288 a<3> gnd! nfet nfin=2 w=0.021u l=0.015u adeo=2.835e-16 aseo=2.835e-16
+  pdeo=5.85e-08 pseo=5.85e-08
mi11|m190 net287 i11|net697 gnd! nfet nfin=2 w=0.021u l=0.015u adeo=2.835e-16
+ aseo=2.835e-16 pdeo=5.85e-08 pseo=5.85e-08
mi11|m192 net283 i11|net697 gnd! nfet nfin=2 w=0.021u l=0.015u adeo=2.835e-16
+ aseo=2.835e-16 pdeo=5.85e-08 pseo=5.85e-08
mi11|m194 net267 i11|net697 gnd! nfet nfin=2 w=0.021u l=0.015u adeo=2.835e-16
+ aseo=2.835e-16 pdeo=5.85e-08 pseo=5.85e-08
mi11|m159 net284 i11|net700 gnd! nfet nfin=2 w=0.021u l=0.015u adeo=2.835e-16
+ aseo=2.835e-16 pdeo=5.85e-08 pseo=5.85e-08
mi11|i232|m0 i11|net697 a<0> gnd! nfet nfin=2 w=0.021u l=0.015u adeo=5.67e-16
+ aseo=2.835e-16 pdeo=1.17e-07 pseo=5.85e-08
mi11|i232|m0@2 gnd! a<0> i11|net697 nfet nfin=2 w=0.021u l=0.015u adeo=2.835e-16
+  aseo=5.67e-16 pdeo=5.85e-08 pseo=1.17e-07
mi11|m119 net287 a<1> gnd! nfet nfin=2 w=0.021u l=0.015u adeo=2.835e-16 aseo=2.835e-16
+  pdeo=5.85e-08 pseo=5.85e-08
mi11|m115 net283 a<1> gnd! nfet nfin=2 w=0.021u l=0.015u adeo=2.835e-16 aseo=2.835e-16
+  pdeo=5.85e-08 pseo=5.85e-08
mi11|m111 net267 a<1> gnd! nfet nfin=2 w=0.021u l=0.015u adeo=2.835e-16 aseo=2.835e-16
+  pdeo=5.85e-08 pseo=5.85e-08
mi11|m172 net287 i11|net699 gnd! nfet nfin=2 w=0.021u l=0.015u adeo=2.835e-16
+ aseo=2.835e-16 pdeo=5.85e-08 pseo=5.85e-08
mi11|m101 net283 a<2> gnd! nfet nfin=2 w=0.021u l=0.015u adeo=2.835e-16 aseo=2.835e-16
+  pdeo=5.85e-08 pseo=5.85e-08
mi11|m168 net267 i11|net699 gnd! nfet nfin=2 w=0.021u l=0.015u adeo=2.835e-16
+ aseo=2.835e-16 pdeo=5.85e-08 pseo=5.85e-08
mi11|i233|m0 i11|net698 a<1> gnd! nfet nfin=2 w=0.021u l=0.015u adeo=5.67e-16
+ aseo=2.835e-16 pdeo=1.17e-07 pseo=5.85e-08
mi11|i233|m0@2 gnd! a<1> i11|net698 nfet nfin=2 w=0.021u l=0.015u adeo=2.835e-16
+  aseo=5.67e-16 pdeo=5.85e-08 pseo=1.17e-07
mi11|m155 net268 i11|net700 gnd! nfet nfin=2 w=0.021u l=0.015u adeo=2.835e-16
+ aseo=2.835e-16 pdeo=5.85e-08 pseo=5.85e-08
mi11|m89 net287 a<3> gnd! nfet nfin=2 w=0.021u l=0.015u adeo=2.835e-16 aseo=2.835e-16
+  pdeo=5.85e-08 pseo=5.85e-08
mi11|m158 net283 i11|net700 gnd! nfet nfin=2 w=0.021u l=0.015u adeo=2.835e-16
+ aseo=2.835e-16 pdeo=5.85e-08 pseo=5.85e-08
mi11|m154 net267 i11|net700 gnd! nfet nfin=2 w=0.021u l=0.015u adeo=2.835e-16
+ aseo=2.835e-16 pdeo=5.85e-08 pseo=5.85e-08
mi11|m129 net288 a<0> gnd! nfet nfin=2 w=0.021u l=0.015u adeo=2.835e-16 aseo=2.835e-16
+  pdeo=5.85e-08 pseo=5.85e-08
mi11|m127 net284 a<0> gnd! nfet nfin=2 w=0.021u l=0.015u adeo=2.835e-16 aseo=2.835e-16
+  pdeo=5.85e-08 pseo=5.85e-08
mi11|m125 net268 a<0> gnd! nfet nfin=2 w=0.021u l=0.015u adeo=2.835e-16 aseo=2.835e-16
+  pdeo=5.85e-08 pseo=5.85e-08
mi11|i234|m0 i11|net699 a<2> gnd! nfet nfin=2 w=0.021u l=0.015u adeo=5.67e-16
+ aseo=2.835e-16 pdeo=1.17e-07 pseo=5.85e-08
mi11|m118 net288 a<1> gnd! nfet nfin=2 w=0.021u l=0.015u adeo=2.835e-16 aseo=2.835e-16
+  pdeo=5.85e-08 pseo=5.85e-08
mi11|m114 net284 a<1> gnd! nfet nfin=2 w=0.021u l=0.015u adeo=2.835e-16 aseo=2.835e-16
+  pdeo=5.85e-08 pseo=5.85e-08
mi11|m112 net268 a<1> gnd! nfet nfin=2 w=0.021u l=0.015u adeo=2.835e-16 aseo=2.835e-16
+  pdeo=5.85e-08 pseo=5.85e-08
mi11|i235|m0@2 gnd! a<3> i11|net700 nfet nfin=2 w=0.021u l=0.015u adeo=2.835e-16
+  aseo=5.67e-16 pdeo=5.85e-08 pseo=1.17e-07
mi40|i1|i1|m0@2 gnd! i40|i1|net4 q<2> nfet nfin=2 w=0.021u l=0.015u adeo=2.835e-16
+  aseo=5.67e-16 pdeo=5.85e-08 pseo=1.17e-07
mi40|i2|i0|m0 i40|i2|net4 net225 gnd! nfet nfin=2 w=0.021u l=0.015u adeo=5.67e-16
+  aseo=2.835e-16 pdeo=1.17e-07 pseo=5.85e-08
mi40|i2|i0|m0@2 gnd! net225 i40|i2|net4 nfet nfin=2 w=0.021u l=0.015u adeo=2.835e-16
+  aseo=5.67e-16 pdeo=5.85e-08 pseo=1.17e-07
mi40|i2|i1|m0 q<1> i40|i2|net4 gnd! nfet nfin=2 w=0.021u l=0.015u adeo=5.67e-16
+ aseo=2.835e-16 pdeo=1.17e-07 pseo=5.85e-08
mi40|i2|i1|m0@2 gnd! i40|i2|net4 q<1> nfet nfin=2 w=0.021u l=0.015u adeo=2.835e-16
+  aseo=5.67e-16 pdeo=5.85e-08 pseo=1.17e-07
mi40|i3|i0|m0 i40|i3|net4 net355 gnd! nfet nfin=2 w=0.021u l=0.015u adeo=5.67e-16
+  aseo=2.835e-16 pdeo=1.17e-07 pseo=5.85e-08
mi40|i3|i0|m0@2 gnd! net355 i40|i3|net4 nfet nfin=2 w=0.021u l=0.015u adeo=2.835e-16
+  aseo=5.67e-16 pdeo=5.85e-08 pseo=1.17e-07
mi40|i3|i1|m0 q<0> i40|i3|net4 gnd! nfet nfin=2 w=0.021u l=0.015u adeo=5.67e-16
+ aseo=2.835e-16 pdeo=1.17e-07 pseo=5.85e-08
mi40|i0|i0|m0 i40|i0|net4 net229 gnd! nfet nfin=2 w=0.021u l=0.015u adeo=5.67e-16
+  aseo=2.835e-16 pdeo=1.17e-07 pseo=5.85e-08
mi40|i0|i0|m0@2 gnd! net229 i40|i0|net4 nfet nfin=2 w=0.021u l=0.015u adeo=2.835e-16
+  aseo=5.67e-16 pdeo=5.85e-08 pseo=1.17e-07
mi40|i0|i1|m0 q<3> i40|i0|net4 gnd! nfet nfin=2 w=0.021u l=0.015u adeo=5.67e-16
+ aseo=2.835e-16 pdeo=1.17e-07 pseo=5.85e-08
mi40|i0|i1|m0@2 gnd! i40|i0|net4 q<3> nfet nfin=2 w=0.021u l=0.015u adeo=2.835e-16
+  aseo=5.67e-16 pdeo=5.85e-08 pseo=1.17e-07
mi40|i1|i0|m0 i40|i1|net4 net227 gnd! nfet nfin=2 w=0.021u l=0.015u adeo=5.67e-16
+  aseo=2.835e-16 pdeo=1.17e-07 pseo=5.85e-08
mi40|i1|i0|m0@2 gnd! net227 i40|i1|net4 nfet nfin=2 w=0.021u l=0.015u adeo=2.835e-16
+  aseo=5.67e-16 pdeo=5.85e-08 pseo=1.17e-07
mi40|i1|i1|m0 q<2> i40|i1|net4 gnd! nfet nfin=2 w=0.021u l=0.015u adeo=5.67e-16
+ aseo=2.835e-16 pdeo=1.17e-07 pseo=5.85e-08
mi40|i3|i1|m0@2 gnd! i40|i3|net4 q<0> nfet nfin=2 w=0.021u l=0.015u adeo=2.835e-16
+  aseo=5.67e-16 pdeo=5.85e-08 pseo=1.17e-07
mi0|i59|i1|m11 bl<1> net262 i0|i59|i1|q nfet nfin=2 w=0.021u l=0.015u adeo=2.835e-16
+  aseo=5.67e-16 pdeo=5.85e-08 pseo=1.17e-07
mi0|i57|i0|m10 blb<0> net263 i0|i57|i0|qb nfet nfin=2 w=0.021u l=0.015u adeo=2.835e-16
+  aseo=5.67e-16 pdeo=5.85e-08 pseo=1.17e-07
mi0|i59|i0|m10 blb<0> net262 i0|i59|i0|qb nfet nfin=2 w=0.021u l=0.015u adeo=2.835e-16
+  aseo=5.67e-16 pdeo=5.85e-08 pseo=1.17e-07
mi0|i57|i0|m1 gnd! i0|i57|i0|q i0|i57|i0|qb nfet nfin=2 w=0.021u l=0.015u adeo=5.67e-16
+  aseo=5.67e-16 pdeo=1.17e-07 pseo=1.17e-07
mi0|i59|i0|m1 gnd! i0|i59|i0|q i0|i59|i0|qb nfet nfin=2 w=0.021u l=0.015u adeo=5.67e-16
+  aseo=5.67e-16 pdeo=1.17e-07 pseo=1.17e-07
mi0|i57|i0|m3 i0|i57|i0|q i0|i57|i0|qb gnd! nfet nfin=2 w=0.021u l=0.015u adeo=5.67e-16
+  aseo=5.67e-16 pdeo=1.17e-07 pseo=1.17e-07
mi0|i57|i3|m10 blb<3> net263 i0|i57|i3|qb nfet nfin=2 w=0.021u l=0.015u adeo=2.835e-16
+  aseo=5.67e-16 pdeo=5.85e-08 pseo=1.17e-07
mi0|i59|i3|m10 blb<3> net262 i0|i59|i3|qb nfet nfin=2 w=0.021u l=0.015u adeo=2.835e-16
+  aseo=5.67e-16 pdeo=5.85e-08 pseo=1.17e-07
mi0|i57|i3|m1 gnd! i0|i57|i3|q i0|i57|i3|qb nfet nfin=2 w=0.021u l=0.015u adeo=5.67e-16
+  aseo=5.67e-16 pdeo=1.17e-07 pseo=1.17e-07
mi0|i59|i0|m3 i0|i59|i0|q i0|i59|i0|qb gnd! nfet nfin=2 w=0.021u l=0.015u adeo=5.67e-16
+  aseo=5.67e-16 pdeo=1.17e-07 pseo=1.17e-07
mi0|i59|i3|m1 gnd! i0|i59|i3|q i0|i59|i3|qb nfet nfin=2 w=0.021u l=0.015u adeo=5.67e-16
+  aseo=5.67e-16 pdeo=1.17e-07 pseo=1.17e-07
mi0|i57|i3|m3 i0|i57|i3|q i0|i57|i3|qb gnd! nfet nfin=2 w=0.021u l=0.015u adeo=5.67e-16
+  aseo=5.67e-16 pdeo=1.17e-07 pseo=1.17e-07
mi0|i59|i3|m3 i0|i59|i3|q i0|i59|i3|qb gnd! nfet nfin=2 w=0.021u l=0.015u adeo=5.67e-16
+  aseo=5.67e-16 pdeo=1.17e-07 pseo=1.17e-07
mi0|i57|i3|m11 bl<3> net263 i0|i57|i3|q nfet nfin=2 w=0.021u l=0.015u adeo=2.835e-16
+  aseo=5.67e-16 pdeo=5.85e-08 pseo=1.17e-07
mi0|i59|i3|m11 bl<3> net262 i0|i59|i3|q nfet nfin=2 w=0.021u l=0.015u adeo=2.835e-16
+  aseo=5.67e-16 pdeo=5.85e-08 pseo=1.17e-07
mi0|i57|i2|m10 blb<2> net263 i0|i57|i2|qb nfet nfin=2 w=0.021u l=0.015u adeo=2.835e-16
+  aseo=5.67e-16 pdeo=5.85e-08 pseo=1.17e-07
mi0|i59|i2|m10 blb<2> net262 i0|i59|i2|qb nfet nfin=2 w=0.021u l=0.015u adeo=2.835e-16
+  aseo=5.67e-16 pdeo=5.85e-08 pseo=1.17e-07
mi0|i57|i2|m1 gnd! i0|i57|i2|q i0|i57|i2|qb nfet nfin=2 w=0.021u l=0.015u adeo=5.67e-16
+  aseo=5.67e-16 pdeo=1.17e-07 pseo=1.17e-07
mi0|i59|i2|m1 gnd! i0|i59|i2|q i0|i59|i2|qb nfet nfin=2 w=0.021u l=0.015u adeo=5.67e-16
+  aseo=5.67e-16 pdeo=1.17e-07 pseo=1.17e-07
mi0|i57|i2|m3 i0|i57|i2|q i0|i57|i2|qb gnd! nfet nfin=2 w=0.021u l=0.015u adeo=5.67e-16
+  aseo=5.67e-16 pdeo=1.17e-07 pseo=1.17e-07
mi0|i57|i0|m11 bl<0> net263 i0|i57|i0|q nfet nfin=2 w=0.021u l=0.015u adeo=2.835e-16
+  aseo=5.67e-16 pdeo=5.85e-08 pseo=1.17e-07
mi0|i59|i2|m3 i0|i59|i2|q i0|i59|i2|qb gnd! nfet nfin=2 w=0.021u l=0.015u adeo=5.67e-16
+  aseo=5.67e-16 pdeo=1.17e-07 pseo=1.17e-07
mi0|i57|i2|m11 bl<2> net263 i0|i57|i2|q nfet nfin=2 w=0.021u l=0.015u adeo=2.835e-16
+  aseo=5.67e-16 pdeo=5.85e-08 pseo=1.17e-07
mi0|i59|i2|m11 bl<2> net262 i0|i59|i2|q nfet nfin=2 w=0.021u l=0.015u adeo=2.835e-16
+  aseo=5.67e-16 pdeo=5.85e-08 pseo=1.17e-07
mi0|i57|i1|m10 blb<1> net263 i0|i57|i1|qb nfet nfin=2 w=0.021u l=0.015u adeo=2.835e-16
+  aseo=5.67e-16 pdeo=5.85e-08 pseo=1.17e-07
mi0|i59|i1|m10 blb<1> net262 i0|i59|i1|qb nfet nfin=2 w=0.021u l=0.015u adeo=2.835e-16
+  aseo=5.67e-16 pdeo=5.85e-08 pseo=1.17e-07
mi0|i57|i1|m1 gnd! i0|i57|i1|q i0|i57|i1|qb nfet nfin=2 w=0.021u l=0.015u adeo=5.67e-16
+  aseo=5.67e-16 pdeo=1.17e-07 pseo=1.17e-07
mi0|i59|i1|m1 gnd! i0|i59|i1|q i0|i59|i1|qb nfet nfin=2 w=0.021u l=0.015u adeo=5.67e-16
+  aseo=5.67e-16 pdeo=1.17e-07 pseo=1.17e-07
mi0|i57|i1|m3 i0|i57|i1|q i0|i57|i1|qb gnd! nfet nfin=2 w=0.021u l=0.015u adeo=5.67e-16
+  aseo=5.67e-16 pdeo=1.17e-07 pseo=1.17e-07
mi0|i59|i1|m3 i0|i59|i1|q i0|i59|i1|qb gnd! nfet nfin=2 w=0.021u l=0.015u adeo=5.67e-16
+  aseo=5.67e-16 pdeo=1.17e-07 pseo=1.17e-07
mi0|i57|i1|m11 bl<1> net263 i0|i57|i1|q nfet nfin=2 w=0.021u l=0.015u adeo=2.835e-16
+  aseo=5.67e-16 pdeo=5.85e-08 pseo=1.17e-07
mi0|i59|i0|m11 bl<0> net262 i0|i59|i0|q nfet nfin=2 w=0.021u l=0.015u adeo=2.835e-16
+  aseo=5.67e-16 pdeo=5.85e-08 pseo=1.17e-07
mi0|i51|i1|m11 bl<1> net270 i0|i51|i1|q nfet nfin=2 w=0.021u l=0.015u adeo=2.835e-16
+  aseo=5.67e-16 pdeo=5.85e-08 pseo=1.17e-07
mi0|i49|i0|m10 blb<0> net271 i0|i49|i0|qb nfet nfin=2 w=0.021u l=0.015u adeo=2.835e-16
+  aseo=5.67e-16 pdeo=5.85e-08 pseo=1.17e-07
mi0|i51|i0|m10 blb<0> net270 i0|i51|i0|qb nfet nfin=2 w=0.021u l=0.015u adeo=2.835e-16
+  aseo=5.67e-16 pdeo=5.85e-08 pseo=1.17e-07
mi0|i49|i0|m1 gnd! i0|i49|i0|q i0|i49|i0|qb nfet nfin=2 w=0.021u l=0.015u adeo=5.67e-16
+  aseo=5.67e-16 pdeo=1.17e-07 pseo=1.17e-07
mi0|i51|i0|m1 gnd! i0|i51|i0|q i0|i51|i0|qb nfet nfin=2 w=0.021u l=0.015u adeo=5.67e-16
+  aseo=5.67e-16 pdeo=1.17e-07 pseo=1.17e-07
mi0|i49|i0|m3 i0|i49|i0|q i0|i49|i0|qb gnd! nfet nfin=2 w=0.021u l=0.015u adeo=5.67e-16
+  aseo=5.67e-16 pdeo=1.17e-07 pseo=1.17e-07
mi0|i49|i3|m10 blb<3> net271 i0|i49|i3|qb nfet nfin=2 w=0.021u l=0.015u adeo=2.835e-16
+  aseo=5.67e-16 pdeo=5.85e-08 pseo=1.17e-07
mi0|i51|i3|m10 blb<3> net270 i0|i51|i3|qb nfet nfin=2 w=0.021u l=0.015u adeo=2.835e-16
+  aseo=5.67e-16 pdeo=5.85e-08 pseo=1.17e-07
mi0|i49|i3|m1 gnd! i0|i49|i3|q i0|i49|i3|qb nfet nfin=2 w=0.021u l=0.015u adeo=5.67e-16
+  aseo=5.67e-16 pdeo=1.17e-07 pseo=1.17e-07
mi0|i51|i0|m3 i0|i51|i0|q i0|i51|i0|qb gnd! nfet nfin=2 w=0.021u l=0.015u adeo=5.67e-16
+  aseo=5.67e-16 pdeo=1.17e-07 pseo=1.17e-07
mi0|i51|i3|m1 gnd! i0|i51|i3|q i0|i51|i3|qb nfet nfin=2 w=0.021u l=0.015u adeo=5.67e-16
+  aseo=5.67e-16 pdeo=1.17e-07 pseo=1.17e-07
mi0|i49|i3|m3 i0|i49|i3|q i0|i49|i3|qb gnd! nfet nfin=2 w=0.021u l=0.015u adeo=5.67e-16
+  aseo=5.67e-16 pdeo=1.17e-07 pseo=1.17e-07
mi0|i51|i3|m3 i0|i51|i3|q i0|i51|i3|qb gnd! nfet nfin=2 w=0.021u l=0.015u adeo=5.67e-16
+  aseo=5.67e-16 pdeo=1.17e-07 pseo=1.17e-07
mi0|i49|i3|m11 bl<3> net271 i0|i49|i3|q nfet nfin=2 w=0.021u l=0.015u adeo=2.835e-16
+  aseo=5.67e-16 pdeo=5.85e-08 pseo=1.17e-07
mi0|i51|i3|m11 bl<3> net270 i0|i51|i3|q nfet nfin=2 w=0.021u l=0.015u adeo=2.835e-16
+  aseo=5.67e-16 pdeo=5.85e-08 pseo=1.17e-07
mi0|i49|i2|m10 blb<2> net271 i0|i49|i2|qb nfet nfin=2 w=0.021u l=0.015u adeo=2.835e-16
+  aseo=5.67e-16 pdeo=5.85e-08 pseo=1.17e-07
mi0|i51|i2|m10 blb<2> net270 i0|i51|i2|qb nfet nfin=2 w=0.021u l=0.015u adeo=2.835e-16
+  aseo=5.67e-16 pdeo=5.85e-08 pseo=1.17e-07
mi0|i49|i2|m1 gnd! i0|i49|i2|q i0|i49|i2|qb nfet nfin=2 w=0.021u l=0.015u adeo=5.67e-16
+  aseo=5.67e-16 pdeo=1.17e-07 pseo=1.17e-07
mi0|i51|i2|m1 gnd! i0|i51|i2|q i0|i51|i2|qb nfet nfin=2 w=0.021u l=0.015u adeo=5.67e-16
+  aseo=5.67e-16 pdeo=1.17e-07 pseo=1.17e-07
mi0|i49|i2|m3 i0|i49|i2|q i0|i49|i2|qb gnd! nfet nfin=2 w=0.021u l=0.015u adeo=5.67e-16
+  aseo=5.67e-16 pdeo=1.17e-07 pseo=1.17e-07
mi0|i49|i0|m11 bl<0> net271 i0|i49|i0|q nfet nfin=2 w=0.021u l=0.015u adeo=2.835e-16
+  aseo=5.67e-16 pdeo=5.85e-08 pseo=1.17e-07
mi0|i51|i2|m3 i0|i51|i2|q i0|i51|i2|qb gnd! nfet nfin=2 w=0.021u l=0.015u adeo=5.67e-16
+  aseo=5.67e-16 pdeo=1.17e-07 pseo=1.17e-07
mi0|i49|i2|m11 bl<2> net271 i0|i49|i2|q nfet nfin=2 w=0.021u l=0.015u adeo=2.835e-16
+  aseo=5.67e-16 pdeo=5.85e-08 pseo=1.17e-07
mi0|i51|i2|m11 bl<2> net270 i0|i51|i2|q nfet nfin=2 w=0.021u l=0.015u adeo=2.835e-16
+  aseo=5.67e-16 pdeo=5.85e-08 pseo=1.17e-07
mi0|i49|i1|m10 blb<1> net271 i0|i49|i1|qb nfet nfin=2 w=0.021u l=0.015u adeo=2.835e-16
+  aseo=5.67e-16 pdeo=5.85e-08 pseo=1.17e-07
mi0|i51|i1|m10 blb<1> net270 i0|i51|i1|qb nfet nfin=2 w=0.021u l=0.015u adeo=2.835e-16
+  aseo=5.67e-16 pdeo=5.85e-08 pseo=1.17e-07
mi0|i49|i1|m1 gnd! i0|i49|i1|q i0|i49|i1|qb nfet nfin=2 w=0.021u l=0.015u adeo=5.67e-16
+  aseo=5.67e-16 pdeo=1.17e-07 pseo=1.17e-07
mi0|i51|i1|m1 gnd! i0|i51|i1|q i0|i51|i1|qb nfet nfin=2 w=0.021u l=0.015u adeo=5.67e-16
+  aseo=5.67e-16 pdeo=1.17e-07 pseo=1.17e-07
mi0|i49|i1|m3 i0|i49|i1|q i0|i49|i1|qb gnd! nfet nfin=2 w=0.021u l=0.015u adeo=5.67e-16
+  aseo=5.67e-16 pdeo=1.17e-07 pseo=1.17e-07
mi0|i51|i1|m3 i0|i51|i1|q i0|i51|i1|qb gnd! nfet nfin=2 w=0.021u l=0.015u adeo=5.67e-16
+  aseo=5.67e-16 pdeo=1.17e-07 pseo=1.17e-07
mi0|i49|i1|m11 bl<1> net271 i0|i49|i1|q nfet nfin=2 w=0.021u l=0.015u adeo=2.835e-16
+  aseo=5.67e-16 pdeo=5.85e-08 pseo=1.17e-07
mi0|i51|i0|m11 bl<0> net270 i0|i51|i0|q nfet nfin=2 w=0.021u l=0.015u adeo=2.835e-16
+  aseo=5.67e-16 pdeo=5.85e-08 pseo=1.17e-07
mi0|i43|i1|m11 bl<1> net274 i0|i43|i1|q nfet nfin=2 w=0.021u l=0.015u adeo=2.835e-16
+  aseo=5.67e-16 pdeo=5.85e-08 pseo=1.17e-07
mi0|i41|i0|m10 blb<0> net275 i0|i41|i0|qb nfet nfin=2 w=0.021u l=0.015u adeo=2.835e-16
+  aseo=5.67e-16 pdeo=5.85e-08 pseo=1.17e-07
mi0|i43|i0|m10 blb<0> net274 i0|i43|i0|qb nfet nfin=2 w=0.021u l=0.015u adeo=2.835e-16
+  aseo=5.67e-16 pdeo=5.85e-08 pseo=1.17e-07
mi0|i41|i0|m1 gnd! i0|i41|i0|q i0|i41|i0|qb nfet nfin=2 w=0.021u l=0.015u adeo=5.67e-16
+  aseo=5.67e-16 pdeo=1.17e-07 pseo=1.17e-07
mi0|i43|i0|m1 gnd! i0|i43|i0|q i0|i43|i0|qb nfet nfin=2 w=0.021u l=0.015u adeo=5.67e-16
+  aseo=5.67e-16 pdeo=1.17e-07 pseo=1.17e-07
mi0|i41|i0|m3 i0|i41|i0|q i0|i41|i0|qb gnd! nfet nfin=2 w=0.021u l=0.015u adeo=5.67e-16
+  aseo=5.67e-16 pdeo=1.17e-07 pseo=1.17e-07
mi0|i41|i3|m10 blb<3> net275 i0|i41|i3|qb nfet nfin=2 w=0.021u l=0.015u adeo=2.835e-16
+  aseo=5.67e-16 pdeo=5.85e-08 pseo=1.17e-07
mi0|i43|i3|m10 blb<3> net274 i0|i43|i3|qb nfet nfin=2 w=0.021u l=0.015u adeo=2.835e-16
+  aseo=5.67e-16 pdeo=5.85e-08 pseo=1.17e-07
mi0|i41|i3|m1 gnd! i0|i41|i3|q i0|i41|i3|qb nfet nfin=2 w=0.021u l=0.015u adeo=5.67e-16
+  aseo=5.67e-16 pdeo=1.17e-07 pseo=1.17e-07
mi0|i43|i0|m3 i0|i43|i0|q i0|i43|i0|qb gnd! nfet nfin=2 w=0.021u l=0.015u adeo=5.67e-16
+  aseo=5.67e-16 pdeo=1.17e-07 pseo=1.17e-07
mi0|i43|i3|m1 gnd! i0|i43|i3|q i0|i43|i3|qb nfet nfin=2 w=0.021u l=0.015u adeo=5.67e-16
+  aseo=5.67e-16 pdeo=1.17e-07 pseo=1.17e-07
mi0|i41|i3|m3 i0|i41|i3|q i0|i41|i3|qb gnd! nfet nfin=2 w=0.021u l=0.015u adeo=5.67e-16
+  aseo=5.67e-16 pdeo=1.17e-07 pseo=1.17e-07
mi0|i43|i3|m3 i0|i43|i3|q i0|i43|i3|qb gnd! nfet nfin=2 w=0.021u l=0.015u adeo=5.67e-16
+  aseo=5.67e-16 pdeo=1.17e-07 pseo=1.17e-07
mi0|i41|i3|m11 bl<3> net275 i0|i41|i3|q nfet nfin=2 w=0.021u l=0.015u adeo=2.835e-16
+  aseo=5.67e-16 pdeo=5.85e-08 pseo=1.17e-07
mi0|i43|i3|m11 bl<3> net274 i0|i43|i3|q nfet nfin=2 w=0.021u l=0.015u adeo=2.835e-16
+  aseo=5.67e-16 pdeo=5.85e-08 pseo=1.17e-07
mi0|i41|i2|m10 blb<2> net275 i0|i41|i2|qb nfet nfin=2 w=0.021u l=0.015u adeo=2.835e-16
+  aseo=5.67e-16 pdeo=5.85e-08 pseo=1.17e-07
mi0|i43|i2|m10 blb<2> net274 i0|i43|i2|qb nfet nfin=2 w=0.021u l=0.015u adeo=2.835e-16
+  aseo=5.67e-16 pdeo=5.85e-08 pseo=1.17e-07
mi0|i41|i2|m1 gnd! i0|i41|i2|q i0|i41|i2|qb nfet nfin=2 w=0.021u l=0.015u adeo=5.67e-16
+  aseo=5.67e-16 pdeo=1.17e-07 pseo=1.17e-07
mi0|i43|i2|m1 gnd! i0|i43|i2|q i0|i43|i2|qb nfet nfin=2 w=0.021u l=0.015u adeo=5.67e-16
+  aseo=5.67e-16 pdeo=1.17e-07 pseo=1.17e-07
mi0|i41|i2|m3 i0|i41|i2|q i0|i41|i2|qb gnd! nfet nfin=2 w=0.021u l=0.015u adeo=5.67e-16
+  aseo=5.67e-16 pdeo=1.17e-07 pseo=1.17e-07
mi0|i41|i0|m11 bl<0> net275 i0|i41|i0|q nfet nfin=2 w=0.021u l=0.015u adeo=2.835e-16
+  aseo=5.67e-16 pdeo=5.85e-08 pseo=1.17e-07
mi0|i43|i2|m3 i0|i43|i2|q i0|i43|i2|qb gnd! nfet nfin=2 w=0.021u l=0.015u adeo=5.67e-16
+  aseo=5.67e-16 pdeo=1.17e-07 pseo=1.17e-07
mi0|i41|i2|m11 bl<2> net275 i0|i41|i2|q nfet nfin=2 w=0.021u l=0.015u adeo=2.835e-16
+  aseo=5.67e-16 pdeo=5.85e-08 pseo=1.17e-07
mi0|i43|i2|m11 bl<2> net274 i0|i43|i2|q nfet nfin=2 w=0.021u l=0.015u adeo=2.835e-16
+  aseo=5.67e-16 pdeo=5.85e-08 pseo=1.17e-07
mi0|i41|i1|m10 blb<1> net275 i0|i41|i1|qb nfet nfin=2 w=0.021u l=0.015u adeo=2.835e-16
+  aseo=5.67e-16 pdeo=5.85e-08 pseo=1.17e-07
mi0|i43|i1|m10 blb<1> net274 i0|i43|i1|qb nfet nfin=2 w=0.021u l=0.015u adeo=2.835e-16
+  aseo=5.67e-16 pdeo=5.85e-08 pseo=1.17e-07
mi0|i41|i1|m1 gnd! i0|i41|i1|q i0|i41|i1|qb nfet nfin=2 w=0.021u l=0.015u adeo=5.67e-16
+  aseo=5.67e-16 pdeo=1.17e-07 pseo=1.17e-07
mi0|i43|i1|m1 gnd! i0|i43|i1|q i0|i43|i1|qb nfet nfin=2 w=0.021u l=0.015u adeo=5.67e-16
+  aseo=5.67e-16 pdeo=1.17e-07 pseo=1.17e-07
mi0|i41|i1|m3 i0|i41|i1|q i0|i41|i1|qb gnd! nfet nfin=2 w=0.021u l=0.015u adeo=5.67e-16
+  aseo=5.67e-16 pdeo=1.17e-07 pseo=1.17e-07
mi0|i43|i1|m3 i0|i43|i1|q i0|i43|i1|qb gnd! nfet nfin=2 w=0.021u l=0.015u adeo=5.67e-16
+  aseo=5.67e-16 pdeo=1.17e-07 pseo=1.17e-07
mi0|i41|i1|m11 bl<1> net275 i0|i41|i1|q nfet nfin=2 w=0.021u l=0.015u adeo=2.835e-16
+  aseo=5.67e-16 pdeo=5.85e-08 pseo=1.17e-07
mi0|i43|i0|m11 bl<0> net274 i0|i43|i0|q nfet nfin=2 w=0.021u l=0.015u adeo=2.835e-16
+  aseo=5.67e-16 pdeo=5.85e-08 pseo=1.17e-07
mi0|i35|i1|m11 bl<1> net278 i0|i35|i1|q nfet nfin=2 w=0.021u l=0.015u adeo=2.835e-16
+  aseo=5.67e-16 pdeo=5.85e-08 pseo=1.17e-07
mi0|i33|i0|m10 blb<0> net279 i0|i33|i0|qb nfet nfin=2 w=0.021u l=0.015u adeo=2.835e-16
+  aseo=5.67e-16 pdeo=5.85e-08 pseo=1.17e-07
mi0|i35|i0|m10 blb<0> net278 i0|i35|i0|qb nfet nfin=2 w=0.021u l=0.015u adeo=2.835e-16
+  aseo=5.67e-16 pdeo=5.85e-08 pseo=1.17e-07
mi0|i33|i0|m1 gnd! i0|i33|i0|q i0|i33|i0|qb nfet nfin=2 w=0.021u l=0.015u adeo=5.67e-16
+  aseo=5.67e-16 pdeo=1.17e-07 pseo=1.17e-07
mi0|i35|i0|m1 gnd! i0|i35|i0|q i0|i35|i0|qb nfet nfin=2 w=0.021u l=0.015u adeo=5.67e-16
+  aseo=5.67e-16 pdeo=1.17e-07 pseo=1.17e-07
mi0|i33|i0|m3 i0|i33|i0|q i0|i33|i0|qb gnd! nfet nfin=2 w=0.021u l=0.015u adeo=5.67e-16
+  aseo=5.67e-16 pdeo=1.17e-07 pseo=1.17e-07
mi0|i33|i3|m10 blb<3> net279 i0|i33|i3|qb nfet nfin=2 w=0.021u l=0.015u adeo=2.835e-16
+  aseo=5.67e-16 pdeo=5.85e-08 pseo=1.17e-07
mi0|i35|i3|m10 blb<3> net278 i0|i35|i3|qb nfet nfin=2 w=0.021u l=0.015u adeo=2.835e-16
+  aseo=5.67e-16 pdeo=5.85e-08 pseo=1.17e-07
mi0|i33|i3|m1 gnd! i0|i33|i3|q i0|i33|i3|qb nfet nfin=2 w=0.021u l=0.015u adeo=5.67e-16
+  aseo=5.67e-16 pdeo=1.17e-07 pseo=1.17e-07
mi0|i35|i0|m3 i0|i35|i0|q i0|i35|i0|qb gnd! nfet nfin=2 w=0.021u l=0.015u adeo=5.67e-16
+  aseo=5.67e-16 pdeo=1.17e-07 pseo=1.17e-07
mi0|i35|i3|m1 gnd! i0|i35|i3|q i0|i35|i3|qb nfet nfin=2 w=0.021u l=0.015u adeo=5.67e-16
+  aseo=5.67e-16 pdeo=1.17e-07 pseo=1.17e-07
mi0|i33|i3|m3 i0|i33|i3|q i0|i33|i3|qb gnd! nfet nfin=2 w=0.021u l=0.015u adeo=5.67e-16
+  aseo=5.67e-16 pdeo=1.17e-07 pseo=1.17e-07
mi0|i35|i3|m3 i0|i35|i3|q i0|i35|i3|qb gnd! nfet nfin=2 w=0.021u l=0.015u adeo=5.67e-16
+  aseo=5.67e-16 pdeo=1.17e-07 pseo=1.17e-07
mi0|i33|i3|m11 bl<3> net279 i0|i33|i3|q nfet nfin=2 w=0.021u l=0.015u adeo=2.835e-16
+  aseo=5.67e-16 pdeo=5.85e-08 pseo=1.17e-07
mi0|i35|i3|m11 bl<3> net278 i0|i35|i3|q nfet nfin=2 w=0.021u l=0.015u adeo=2.835e-16
+  aseo=5.67e-16 pdeo=5.85e-08 pseo=1.17e-07
mi0|i33|i2|m10 blb<2> net279 i0|i33|i2|qb nfet nfin=2 w=0.021u l=0.015u adeo=2.835e-16
+  aseo=5.67e-16 pdeo=5.85e-08 pseo=1.17e-07
mi0|i35|i2|m10 blb<2> net278 i0|i35|i2|qb nfet nfin=2 w=0.021u l=0.015u adeo=2.835e-16
+  aseo=5.67e-16 pdeo=5.85e-08 pseo=1.17e-07
mi0|i33|i2|m1 gnd! i0|i33|i2|q i0|i33|i2|qb nfet nfin=2 w=0.021u l=0.015u adeo=5.67e-16
+  aseo=5.67e-16 pdeo=1.17e-07 pseo=1.17e-07
mi0|i35|i2|m1 gnd! i0|i35|i2|q i0|i35|i2|qb nfet nfin=2 w=0.021u l=0.015u adeo=5.67e-16
+  aseo=5.67e-16 pdeo=1.17e-07 pseo=1.17e-07
mi0|i33|i2|m3 i0|i33|i2|q i0|i33|i2|qb gnd! nfet nfin=2 w=0.021u l=0.015u adeo=5.67e-16
+  aseo=5.67e-16 pdeo=1.17e-07 pseo=1.17e-07
mi0|i33|i0|m11 bl<0> net279 i0|i33|i0|q nfet nfin=2 w=0.021u l=0.015u adeo=2.835e-16
+  aseo=5.67e-16 pdeo=5.85e-08 pseo=1.17e-07
mi0|i35|i2|m3 i0|i35|i2|q i0|i35|i2|qb gnd! nfet nfin=2 w=0.021u l=0.015u adeo=5.67e-16
+  aseo=5.67e-16 pdeo=1.17e-07 pseo=1.17e-07
mi0|i33|i2|m11 bl<2> net279 i0|i33|i2|q nfet nfin=2 w=0.021u l=0.015u adeo=2.835e-16
+  aseo=5.67e-16 pdeo=5.85e-08 pseo=1.17e-07
mi0|i35|i2|m11 bl<2> net278 i0|i35|i2|q nfet nfin=2 w=0.021u l=0.015u adeo=2.835e-16
+  aseo=5.67e-16 pdeo=5.85e-08 pseo=1.17e-07
mi0|i33|i1|m10 blb<1> net279 i0|i33|i1|qb nfet nfin=2 w=0.021u l=0.015u adeo=2.835e-16
+  aseo=5.67e-16 pdeo=5.85e-08 pseo=1.17e-07
mi0|i35|i1|m10 blb<1> net278 i0|i35|i1|qb nfet nfin=2 w=0.021u l=0.015u adeo=2.835e-16
+  aseo=5.67e-16 pdeo=5.85e-08 pseo=1.17e-07
mi0|i33|i1|m1 gnd! i0|i33|i1|q i0|i33|i1|qb nfet nfin=2 w=0.021u l=0.015u adeo=5.67e-16
+  aseo=5.67e-16 pdeo=1.17e-07 pseo=1.17e-07
mi0|i35|i1|m1 gnd! i0|i35|i1|q i0|i35|i1|qb nfet nfin=2 w=0.021u l=0.015u adeo=5.67e-16
+  aseo=5.67e-16 pdeo=1.17e-07 pseo=1.17e-07
mi0|i33|i1|m3 i0|i33|i1|q i0|i33|i1|qb gnd! nfet nfin=2 w=0.021u l=0.015u adeo=5.67e-16
+  aseo=5.67e-16 pdeo=1.17e-07 pseo=1.17e-07
mi0|i35|i1|m3 i0|i35|i1|q i0|i35|i1|qb gnd! nfet nfin=2 w=0.021u l=0.015u adeo=5.67e-16
+  aseo=5.67e-16 pdeo=1.17e-07 pseo=1.17e-07
mi0|i33|i1|m11 bl<1> net279 i0|i33|i1|q nfet nfin=2 w=0.021u l=0.015u adeo=2.835e-16
+  aseo=5.67e-16 pdeo=5.85e-08 pseo=1.17e-07
mi0|i35|i0|m11 bl<0> net278 i0|i35|i0|q nfet nfin=2 w=0.021u l=0.015u adeo=2.835e-16
+  aseo=5.67e-16 pdeo=5.85e-08 pseo=1.17e-07
mi0|i58|i1|m11 bl<5> net262 i0|i58|i1|q nfet nfin=2 w=0.021u l=0.015u adeo=2.835e-16
+  aseo=5.67e-16 pdeo=5.85e-08 pseo=1.17e-07
mi0|i56|i0|m10 blb<4> net263 i0|i56|i0|qb nfet nfin=2 w=0.021u l=0.015u adeo=2.835e-16
+  aseo=5.67e-16 pdeo=5.85e-08 pseo=1.17e-07
mi0|i58|i0|m10 blb<4> net262 i0|i58|i0|qb nfet nfin=2 w=0.021u l=0.015u adeo=2.835e-16
+  aseo=5.67e-16 pdeo=5.85e-08 pseo=1.17e-07
mi0|i56|i0|m1 gnd! i0|i56|i0|q i0|i56|i0|qb nfet nfin=2 w=0.021u l=0.015u adeo=5.67e-16
+  aseo=5.67e-16 pdeo=1.17e-07 pseo=1.17e-07
mi0|i58|i0|m1 gnd! i0|i58|i0|q i0|i58|i0|qb nfet nfin=2 w=0.021u l=0.015u adeo=5.67e-16
+  aseo=5.67e-16 pdeo=1.17e-07 pseo=1.17e-07
mi0|i56|i0|m3 i0|i56|i0|q i0|i56|i0|qb gnd! nfet nfin=2 w=0.021u l=0.015u adeo=5.67e-16
+  aseo=5.67e-16 pdeo=1.17e-07 pseo=1.17e-07
mi0|i56|i3|m10 blb<7> net263 i0|i56|i3|qb nfet nfin=2 w=0.021u l=0.015u adeo=2.835e-16
+  aseo=5.67e-16 pdeo=5.85e-08 pseo=1.17e-07
mi0|i58|i3|m10 blb<7> net262 i0|i58|i3|qb nfet nfin=2 w=0.021u l=0.015u adeo=2.835e-16
+  aseo=5.67e-16 pdeo=5.85e-08 pseo=1.17e-07
mi0|i56|i3|m1 gnd! i0|i56|i3|q i0|i56|i3|qb nfet nfin=2 w=0.021u l=0.015u adeo=5.67e-16
+  aseo=5.67e-16 pdeo=1.17e-07 pseo=1.17e-07
mi0|i58|i0|m3 i0|i58|i0|q i0|i58|i0|qb gnd! nfet nfin=2 w=0.021u l=0.015u adeo=5.67e-16
+  aseo=5.67e-16 pdeo=1.17e-07 pseo=1.17e-07
mi0|i58|i3|m1 gnd! i0|i58|i3|q i0|i58|i3|qb nfet nfin=2 w=0.021u l=0.015u adeo=5.67e-16
+  aseo=5.67e-16 pdeo=1.17e-07 pseo=1.17e-07
mi0|i56|i3|m3 i0|i56|i3|q i0|i56|i3|qb gnd! nfet nfin=2 w=0.021u l=0.015u adeo=5.67e-16
+  aseo=5.67e-16 pdeo=1.17e-07 pseo=1.17e-07
mi0|i58|i3|m3 i0|i58|i3|q i0|i58|i3|qb gnd! nfet nfin=2 w=0.021u l=0.015u adeo=5.67e-16
+  aseo=5.67e-16 pdeo=1.17e-07 pseo=1.17e-07
mi0|i56|i3|m11 bl<7> net263 i0|i56|i3|q nfet nfin=2 w=0.021u l=0.015u adeo=2.835e-16
+  aseo=5.67e-16 pdeo=5.85e-08 pseo=1.17e-07
mi0|i58|i3|m11 bl<7> net262 i0|i58|i3|q nfet nfin=2 w=0.021u l=0.015u adeo=2.835e-16
+  aseo=5.67e-16 pdeo=5.85e-08 pseo=1.17e-07
mi0|i56|i2|m10 blb<6> net263 i0|i56|i2|qb nfet nfin=2 w=0.021u l=0.015u adeo=2.835e-16
+  aseo=5.67e-16 pdeo=5.85e-08 pseo=1.17e-07
mi0|i58|i2|m10 blb<6> net262 i0|i58|i2|qb nfet nfin=2 w=0.021u l=0.015u adeo=2.835e-16
+  aseo=5.67e-16 pdeo=5.85e-08 pseo=1.17e-07
mi0|i56|i2|m1 gnd! i0|i56|i2|q i0|i56|i2|qb nfet nfin=2 w=0.021u l=0.015u adeo=5.67e-16
+  aseo=5.67e-16 pdeo=1.17e-07 pseo=1.17e-07
mi0|i58|i2|m1 gnd! i0|i58|i2|q i0|i58|i2|qb nfet nfin=2 w=0.021u l=0.015u adeo=5.67e-16
+  aseo=5.67e-16 pdeo=1.17e-07 pseo=1.17e-07
mi0|i56|i2|m3 i0|i56|i2|q i0|i56|i2|qb gnd! nfet nfin=2 w=0.021u l=0.015u adeo=5.67e-16
+  aseo=5.67e-16 pdeo=1.17e-07 pseo=1.17e-07
mi0|i56|i0|m11 bl<4> net263 i0|i56|i0|q nfet nfin=2 w=0.021u l=0.015u adeo=2.835e-16
+  aseo=5.67e-16 pdeo=5.85e-08 pseo=1.17e-07