********************************************************************************
* Library          : project_backup
* Cell             : inverter
* View             : schematic
* View Search List : auCdl schematic symbol
* View Stop List   : auCdl
********************************************************************************
.subckt inverter in out
*.PININFO in:I out:O
MM1 out in vdd! pmos
MM0 out in gnd! nmos
.ends inverter

